file 69141033 1487766989                                        
version 2
run WithoutChannelSwitching-0-20170222-10:34:15-32213
attr configname WithoutChannelSwitching
attr datetime 20170222-10:34:15
attr experiment WithoutChannelSwitching
attr inifile omnetpp.ini
attr iterationvars ""
attr iterationvars2 $repetition=0
attr measurement ""
attr network V2X
attr processid 32213
attr repetition 0
attr replication #0
attr resultdir results
attr runnumber 0
attr seedset 0
param **.coreDebug false
param **.dataOnSch false
param **.debug false
param **.sendBeacons true
param **.useServiceChannel false
param *.**.nic.mac1609_4.bitrate 6Mbps
param *.**.nic.mac1609_4.txPower 20mW
param *.**.nic.mac1609_4.useServiceChannel false
param *.**.nic.phy80211p.analogueModels "xmldoc(\"config.xml\")"
param *.**.nic.phy80211p.collectCollisionStatistics true
param *.**.nic.phy80211p.decider "xmldoc(\"config.xml\")"
param *.**.nic.phy80211p.sensitivity -89dBm
param *.**.nic.phy80211p.thermalNoise -110dBm
param *.**.nic.phy80211p.usePropagationDelay true
param *.**.nic.phy80211p.useThermalNoise true
param *.TMC.beaconInterval 0.1s
param *.TMC.beaconPriority 3
param *.TMC.headerLength "80  bit"
param *.TMC.sendWSA true
param *.TMC.size 2
param *.annotations.draw false
param *.connectionManager.drawMaxIntfDist false
param *.connectionManager.maxInterfDist 2600m
param *.connectionManager.sendDirect true
param *.manager.autoShutdown false
param *.manager.host "\"localhost\""
param *.manager.launchConfig "xmldoc(\"scenario.launchd.xml\")"
param *.manager.margin 25
param *.manager.moduleDisplayString "\"\""
param *.manager.moduleName "\"node\""
param *.manager.moduleType "\"project.MyCar_Model.Car_model\""
param *.manager.numVehicles 200
param *.manager.port 9999
param *.manager.updateInterval 0.1s
param *.node[*0].veinsmobility.accidentCount 1
param *.node[*0].veinsmobility.accidentDuration 50s
param *.node[*0].veinsmobility.accidentStart 75s
param *.node[*].appl.beaconInterval 1s
param *.node[*].appl.dataOnSch false
param *.node[*].appl.debug false
param *.node[*].appl.headerLength "80 bit"
param *.node[*].appl.sendBeacons true
param *.node[*].appl.sendWSA true
param *.node[*].applType "\"CAR_Apps\""
param *.node[*].mobilityType "\"TraCIMobility\""
param *.node[*].mobilityType.debug true
param *.node[*].veinsmobility.x 0
param *.node[*].veinsmobility.y 0
param *.node[*].veinsmobility.z 1.895
param *.node[*].veinsmobilityType "\"org.car2x.veins.modules.mobility.traci.TraCIMobility\""
param *.node[*].veinsmobilityType.debug true
param *.numRsu 2
param *.playgroundSizeX 2600m
param *.playgroundSizeY 2600m
param *.playgroundSizeZ 50m
param *.rsu[0].mobility.x 511
param *.rsu[0].mobility.y 511
param *.rsu[0].mobility.z 0
param *.rsu[1].mobility.x 1533
param *.rsu[1].mobility.y 511
param *.rsu[1].mobility.z 0
param *.world.use2D false
param *.world.useTorus false

vector 18  V2X.node[0].veinsmobility  posx  ETV
vector 19  V2X.node[0].veinsmobility  posy  ETV
vector 36  V2X.node[1].veinsmobility  posx  ETV
vector 37  V2X.node[1].veinsmobility  posy  ETV
vector 20  V2X.node[0].veinsmobility  speed  ETV
vector 38  V2X.node[1].veinsmobility  speed  ETV
vector 21  V2X.node[0].veinsmobility  acceleration  ETV
vector 22  V2X.node[0].veinsmobility  co2emission  ETV
vector 39  V2X.node[1].veinsmobility  acceleration  ETV
vector 40  V2X.node[1].veinsmobility  co2emission  ETV
vector 54  V2X.node[2].veinsmobility  posx  ETV
vector 55  V2X.node[2].veinsmobility  posy  ETV
vector 56  V2X.node[2].veinsmobility  speed  ETV
vector 57  V2X.node[2].veinsmobility  acceleration  ETV
vector 58  V2X.node[2].veinsmobility  co2emission  ETV
vector 72  V2X.node[3].veinsmobility  posx  ETV
vector 73  V2X.node[3].veinsmobility  posy  ETV
vector 74  V2X.node[3].veinsmobility  speed  ETV
vector 75  V2X.node[3].veinsmobility  acceleration  ETV
vector 76  V2X.node[3].veinsmobility  co2emission  ETV
vector 90  V2X.node[4].veinsmobility  posx  ETV
vector 91  V2X.node[4].veinsmobility  posy  ETV
vector 92  V2X.node[4].veinsmobility  speed  ETV
vector 108  V2X.node[5].veinsmobility  posx  ETV
vector 109  V2X.node[5].veinsmobility  posy  ETV
vector 93  V2X.node[4].veinsmobility  acceleration  ETV
vector 94  V2X.node[4].veinsmobility  co2emission  ETV
vector 126  V2X.node[6].veinsmobility  posx  ETV
vector 127  V2X.node[6].veinsmobility  posy  ETV
vector 110  V2X.node[5].veinsmobility  speed  ETV
vector 111  V2X.node[5].veinsmobility  acceleration  ETV
vector 112  V2X.node[5].veinsmobility  co2emission  ETV
vector 128  V2X.node[6].veinsmobility  speed  ETV
vector 129  V2X.node[6].veinsmobility  acceleration  ETV
vector 130  V2X.node[6].veinsmobility  co2emission  ETV
vector 144  V2X.node[7].veinsmobility  posx  ETV
vector 145  V2X.node[7].veinsmobility  posy  ETV
vector 146  V2X.node[7].veinsmobility  speed  ETV
vector 147  V2X.node[7].veinsmobility  acceleration  ETV
vector 148  V2X.node[7].veinsmobility  co2emission  ETV
vector 162  V2X.node[8].veinsmobility  posx  ETV
vector 163  V2X.node[8].veinsmobility  posy  ETV
vector 164  V2X.node[8].veinsmobility  speed  ETV
vector 165  V2X.node[8].veinsmobility  acceleration  ETV
vector 166  V2X.node[8].veinsmobility  co2emission  ETV
vector 180  V2X.node[9].veinsmobility  posx  ETV
vector 181  V2X.node[9].veinsmobility  posy  ETV
vector 182  V2X.node[9].veinsmobility  speed  ETV
vector 183  V2X.node[9].veinsmobility  acceleration  ETV
vector 184  V2X.node[9].veinsmobility  co2emission  ETV
vector 198  V2X.node[10].veinsmobility  posx  ETV
vector 199  V2X.node[10].veinsmobility  posy  ETV
vector 200  V2X.node[10].veinsmobility  speed  ETV
vector 201  V2X.node[10].veinsmobility  acceleration  ETV
vector 202  V2X.node[10].veinsmobility  co2emission  ETV
vector 216  V2X.node[11].veinsmobility  posx  ETV
vector 217  V2X.node[11].veinsmobility  posy  ETV
vector 218  V2X.node[11].veinsmobility  speed  ETV
vector 219  V2X.node[11].veinsmobility  acceleration  ETV
vector 220  V2X.node[11].veinsmobility  co2emission  ETV
vector 234  V2X.node[12].veinsmobility  posx  ETV
vector 235  V2X.node[12].veinsmobility  posy  ETV
vector 236  V2X.node[12].veinsmobility  speed  ETV
vector 237  V2X.node[12].veinsmobility  acceleration  ETV
vector 238  V2X.node[12].veinsmobility  co2emission  ETV
vector 252  V2X.node[13].veinsmobility  posx  ETV
vector 253  V2X.node[13].veinsmobility  posy  ETV
vector 254  V2X.node[13].veinsmobility  speed  ETV
vector 255  V2X.node[13].veinsmobility  acceleration  ETV
vector 256  V2X.node[13].veinsmobility  co2emission  ETV
vector 270  V2X.node[14].veinsmobility  posx  ETV
vector 271  V2X.node[14].veinsmobility  posy  ETV
vector 272  V2X.node[14].veinsmobility  speed  ETV
vector 273  V2X.node[14].veinsmobility  acceleration  ETV
vector 274  V2X.node[14].veinsmobility  co2emission  ETV
vector 288  V2X.node[15].veinsmobility  posx  ETV
vector 289  V2X.node[15].veinsmobility  posy  ETV
vector 290  V2X.node[15].veinsmobility  speed  ETV
vector 291  V2X.node[15].veinsmobility  acceleration  ETV
vector 292  V2X.node[15].veinsmobility  co2emission  ETV
vector 306  V2X.node[16].veinsmobility  posx  ETV
vector 307  V2X.node[16].veinsmobility  posy  ETV
vector 308  V2X.node[16].veinsmobility  speed  ETV
vector 309  V2X.node[16].veinsmobility  acceleration  ETV
vector 310  V2X.node[16].veinsmobility  co2emission  ETV
vector 324  V2X.node[17].veinsmobility  posx  ETV
vector 325  V2X.node[17].veinsmobility  posy  ETV
vector 326  V2X.node[17].veinsmobility  speed  ETV
vector 327  V2X.node[17].veinsmobility  acceleration  ETV
vector 328  V2X.node[17].veinsmobility  co2emission  ETV
vector 342  V2X.node[18].veinsmobility  posx  ETV
vector 343  V2X.node[18].veinsmobility  posy  ETV
vector 344  V2X.node[18].veinsmobility  speed  ETV
vector 345  V2X.node[18].veinsmobility  acceleration  ETV
vector 346  V2X.node[18].veinsmobility  co2emission  ETV
vector 360  V2X.node[19].veinsmobility  posx  ETV
vector 361  V2X.node[19].veinsmobility  posy  ETV
vector 362  V2X.node[19].veinsmobility  speed  ETV
vector 363  V2X.node[19].veinsmobility  acceleration  ETV
vector 364  V2X.node[19].veinsmobility  co2emission  ETV
vector 378  V2X.node[20].veinsmobility  posx  ETV
vector 379  V2X.node[20].veinsmobility  posy  ETV
vector 380  V2X.node[20].veinsmobility  speed  ETV
vector 381  V2X.node[20].veinsmobility  acceleration  ETV
vector 382  V2X.node[20].veinsmobility  co2emission  ETV
vector 396  V2X.node[21].veinsmobility  posx  ETV
vector 397  V2X.node[21].veinsmobility  posy  ETV
vector 398  V2X.node[21].veinsmobility  speed  ETV
vector 399  V2X.node[21].veinsmobility  acceleration  ETV
vector 400  V2X.node[21].veinsmobility  co2emission  ETV
vector 414  V2X.node[22].veinsmobility  posx  ETV
vector 415  V2X.node[22].veinsmobility  posy  ETV
vector 416  V2X.node[22].veinsmobility  speed  ETV
vector 417  V2X.node[22].veinsmobility  acceleration  ETV
vector 418  V2X.node[22].veinsmobility  co2emission  ETV
vector 432  V2X.node[23].veinsmobility  posx  ETV
vector 433  V2X.node[23].veinsmobility  posy  ETV
vector 434  V2X.node[23].veinsmobility  speed  ETV
vector 435  V2X.node[23].veinsmobility  acceleration  ETV
vector 436  V2X.node[23].veinsmobility  co2emission  ETV
vector 450  V2X.node[24].veinsmobility  posx  ETV
vector 451  V2X.node[24].veinsmobility  posy  ETV
vector 452  V2X.node[24].veinsmobility  speed  ETV
vector 453  V2X.node[24].veinsmobility  acceleration  ETV
vector 454  V2X.node[24].veinsmobility  co2emission  ETV
vector 468  V2X.node[25].veinsmobility  posx  ETV
vector 469  V2X.node[25].veinsmobility  posy  ETV
vector 470  V2X.node[25].veinsmobility  speed  ETV
vector 471  V2X.node[25].veinsmobility  acceleration  ETV
vector 472  V2X.node[25].veinsmobility  co2emission  ETV
vector 486  V2X.node[26].veinsmobility  posx  ETV
vector 487  V2X.node[26].veinsmobility  posy  ETV
vector 488  V2X.node[26].veinsmobility  speed  ETV
vector 489  V2X.node[26].veinsmobility  acceleration  ETV
vector 490  V2X.node[26].veinsmobility  co2emission  ETV
vector 504  V2X.node[27].veinsmobility  posx  ETV
vector 505  V2X.node[27].veinsmobility  posy  ETV
vector 506  V2X.node[27].veinsmobility  speed  ETV
vector 507  V2X.node[27].veinsmobility  acceleration  ETV
vector 508  V2X.node[27].veinsmobility  co2emission  ETV
vector 522  V2X.node[28].veinsmobility  posx  ETV
vector 523  V2X.node[28].veinsmobility  posy  ETV
vector 524  V2X.node[28].veinsmobility  speed  ETV
vector 525  V2X.node[28].veinsmobility  acceleration  ETV
vector 526  V2X.node[28].veinsmobility  co2emission  ETV
vector 540  V2X.node[29].veinsmobility  posx  ETV
vector 541  V2X.node[29].veinsmobility  posy  ETV
vector 542  V2X.node[29].veinsmobility  speed  ETV
vector 558  V2X.node[30].veinsmobility  posx  ETV
vector 559  V2X.node[30].veinsmobility  posy  ETV
vector 543  V2X.node[29].veinsmobility  acceleration  ETV
vector 544  V2X.node[29].veinsmobility  co2emission  ETV
vector 560  V2X.node[30].veinsmobility  speed  ETV
vector 561  V2X.node[30].veinsmobility  acceleration  ETV
vector 562  V2X.node[30].veinsmobility  co2emission  ETV
vector 576  V2X.node[31].veinsmobility  posx  ETV
vector 577  V2X.node[31].veinsmobility  posy  ETV
vector 578  V2X.node[31].veinsmobility  speed  ETV
vector 579  V2X.node[31].veinsmobility  acceleration  ETV
vector 580  V2X.node[31].veinsmobility  co2emission  ETV
vector 8  V2X.node[0].appl  E2E_WIDelay  ETV
vector 9  V2X.node[0].appl  E2E_DSLDelay  ETV
vector 11  V2X.node[0].appl  "E2E_delay _WSA_WI"  ETV
vector 13  V2X.node[0].appl  E2E_delay_WSA_DSL  ETV
vector 12  V2X.node[0].appl  E2E_delay_WSA_PI  ETV
vector 10  V2X.node[0].appl  E2E_PIDelay  ETV
vector 594  V2X.node[32].veinsmobility  posx  ETV
vector 595  V2X.node[32].veinsmobility  posy  ETV
vector 596  V2X.node[32].veinsmobility  speed  ETV
vector 597  V2X.node[32].veinsmobility  acceleration  ETV
vector 598  V2X.node[32].veinsmobility  co2emission  ETV
vector 98  V2X.node[5].appl  E2E_WIDelay  ETV
vector 101  V2X.node[5].appl  "E2E_delay _WSA_WI"  ETV
vector 99  V2X.node[5].appl  E2E_DSLDelay  ETV
vector 103  V2X.node[5].appl  E2E_delay_WSA_DSL  ETV
vector 102  V2X.node[5].appl  E2E_delay_WSA_PI  ETV
vector 100  V2X.node[5].appl  E2E_PIDelay  ETV
vector 612  V2X.node[33].veinsmobility  posx  ETV
vector 613  V2X.node[33].veinsmobility  posy  ETV
vector 614  V2X.node[33].veinsmobility  speed  ETV
vector 615  V2X.node[33].veinsmobility  acceleration  ETV
vector 616  V2X.node[33].veinsmobility  co2emission  ETV
vector 630  V2X.node[34].veinsmobility  posx  ETV
vector 631  V2X.node[34].veinsmobility  posy  ETV
vector 632  V2X.node[34].veinsmobility  speed  ETV
vector 633  V2X.node[34].veinsmobility  acceleration  ETV
vector 634  V2X.node[34].veinsmobility  co2emission  ETV
vector 648  V2X.node[35].veinsmobility  posx  ETV
vector 649  V2X.node[35].veinsmobility  posy  ETV
vector 650  V2X.node[35].veinsmobility  speed  ETV
vector 651  V2X.node[35].veinsmobility  acceleration  ETV
vector 652  V2X.node[35].veinsmobility  co2emission  ETV
vector 666  V2X.node[36].veinsmobility  posx  ETV
vector 667  V2X.node[36].veinsmobility  posy  ETV
vector 668  V2X.node[36].veinsmobility  speed  ETV
vector 669  V2X.node[36].veinsmobility  acceleration  ETV
vector 670  V2X.node[36].veinsmobility  co2emission  ETV
vector 684  V2X.node[37].veinsmobility  posx  ETV
vector 685  V2X.node[37].veinsmobility  posy  ETV
vector 686  V2X.node[37].veinsmobility  speed  ETV
vector 687  V2X.node[37].veinsmobility  acceleration  ETV
vector 688  V2X.node[37].veinsmobility  co2emission  ETV
vector 702  V2X.node[38].veinsmobility  posx  ETV
vector 703  V2X.node[38].veinsmobility  posy  ETV
vector 704  V2X.node[38].veinsmobility  speed  ETV
vector 705  V2X.node[38].veinsmobility  acceleration  ETV
vector 706  V2X.node[38].veinsmobility  co2emission  ETV
vector 720  V2X.node[39].veinsmobility  posx  ETV
vector 721  V2X.node[39].veinsmobility  posy  ETV
vector 722  V2X.node[39].veinsmobility  speed  ETV
vector 723  V2X.node[39].veinsmobility  acceleration  ETV
vector 724  V2X.node[39].veinsmobility  co2emission  ETV
vector 26  V2X.node[1].appl  E2E_WIDelay  ETV
vector 29  V2X.node[1].appl  "E2E_delay _WSA_WI"  ETV
vector 31  V2X.node[1].appl  E2E_delay_WSA_DSL  ETV
vector 30  V2X.node[1].appl  E2E_delay_WSA_PI  ETV
vector 27  V2X.node[1].appl  E2E_DSLDelay  ETV
vector 28  V2X.node[1].appl  E2E_PIDelay  ETV
vector 738  V2X.node[40].veinsmobility  posx  ETV
vector 739  V2X.node[40].veinsmobility  posy  ETV
vector 740  V2X.node[40].veinsmobility  speed  ETV
vector 741  V2X.node[40].veinsmobility  acceleration  ETV
vector 742  V2X.node[40].veinsmobility  co2emission  ETV
vector 756  V2X.node[41].veinsmobility  posx  ETV
vector 757  V2X.node[41].veinsmobility  posy  ETV
vector 758  V2X.node[41].veinsmobility  speed  ETV
vector 759  V2X.node[41].veinsmobility  acceleration  ETV
vector 760  V2X.node[41].veinsmobility  co2emission  ETV
vector 774  V2X.node[42].veinsmobility  posx  ETV
vector 775  V2X.node[42].veinsmobility  posy  ETV
vector 776  V2X.node[42].veinsmobility  speed  ETV
vector 777  V2X.node[42].veinsmobility  acceleration  ETV
vector 778  V2X.node[42].veinsmobility  co2emission  ETV
vector 792  V2X.node[43].veinsmobility  posx  ETV
vector 793  V2X.node[43].veinsmobility  posy  ETV
vector 810  V2X.node[44].veinsmobility  posx  ETV
vector 811  V2X.node[44].veinsmobility  posy  ETV
vector 794  V2X.node[43].veinsmobility  speed  ETV
vector 812  V2X.node[44].veinsmobility  speed  ETV
vector 795  V2X.node[43].veinsmobility  acceleration  ETV
vector 796  V2X.node[43].veinsmobility  co2emission  ETV
vector 813  V2X.node[44].veinsmobility  acceleration  ETV
vector 814  V2X.node[44].veinsmobility  co2emission  ETV
vector 828  V2X.node[45].veinsmobility  posx  ETV
vector 829  V2X.node[45].veinsmobility  posy  ETV
vector 830  V2X.node[45].veinsmobility  speed  ETV
vector 831  V2X.node[45].veinsmobility  acceleration  ETV
vector 832  V2X.node[45].veinsmobility  co2emission  ETV
vector 846  V2X.node[46].veinsmobility  posx  ETV
vector 847  V2X.node[46].veinsmobility  posy  ETV
vector 848  V2X.node[46].veinsmobility  speed  ETV
vector 849  V2X.node[46].veinsmobility  acceleration  ETV
vector 850  V2X.node[46].veinsmobility  co2emission  ETV
vector 864  V2X.node[47].veinsmobility  posx  ETV
vector 865  V2X.node[47].veinsmobility  posy  ETV
vector 866  V2X.node[47].veinsmobility  speed  ETV
vector 867  V2X.node[47].veinsmobility  acceleration  ETV
vector 868  V2X.node[47].veinsmobility  co2emission  ETV
vector 882  V2X.node[48].veinsmobility  posx  ETV
vector 883  V2X.node[48].veinsmobility  posy  ETV
vector 884  V2X.node[48].veinsmobility  speed  ETV
vector 885  V2X.node[48].veinsmobility  acceleration  ETV
vector 886  V2X.node[48].veinsmobility  co2emission  ETV
vector 900  V2X.node[49].veinsmobility  posx  ETV
vector 901  V2X.node[49].veinsmobility  posy  ETV
vector 902  V2X.node[49].veinsmobility  speed  ETV
vector 903  V2X.node[49].veinsmobility  acceleration  ETV
vector 904  V2X.node[49].veinsmobility  co2emission  ETV
vector 918  V2X.node[50].veinsmobility  posx  ETV
vector 919  V2X.node[50].veinsmobility  posy  ETV
vector 920  V2X.node[50].veinsmobility  speed  ETV
vector 921  V2X.node[50].veinsmobility  acceleration  ETV
vector 922  V2X.node[50].veinsmobility  co2emission  ETV
vector 936  V2X.node[51].veinsmobility  posx  ETV
vector 937  V2X.node[51].veinsmobility  posy  ETV
vector 938  V2X.node[51].veinsmobility  speed  ETV
vector 939  V2X.node[51].veinsmobility  acceleration  ETV
vector 940  V2X.node[51].veinsmobility  co2emission  ETV
vector 954  V2X.node[52].veinsmobility  posx  ETV
vector 955  V2X.node[52].veinsmobility  posy  ETV
vector 956  V2X.node[52].veinsmobility  speed  ETV
vector 957  V2X.node[52].veinsmobility  acceleration  ETV
vector 958  V2X.node[52].veinsmobility  co2emission  ETV
vector 972  V2X.node[53].veinsmobility  posx  ETV
vector 973  V2X.node[53].veinsmobility  posy  ETV
vector 974  V2X.node[53].veinsmobility  speed  ETV
vector 975  V2X.node[53].veinsmobility  acceleration  ETV
vector 976  V2X.node[53].veinsmobility  co2emission  ETV
vector 990  V2X.node[54].veinsmobility  posx  ETV
vector 991  V2X.node[54].veinsmobility  posy  ETV
vector 992  V2X.node[54].veinsmobility  speed  ETV
vector 993  V2X.node[54].veinsmobility  acceleration  ETV
vector 994  V2X.node[54].veinsmobility  co2emission  ETV
vector 1008  V2X.node[55].veinsmobility  posx  ETV
vector 1009  V2X.node[55].veinsmobility  posy  ETV
vector 1010  V2X.node[55].veinsmobility  speed  ETV
vector 1011  V2X.node[55].veinsmobility  acceleration  ETV
vector 1012  V2X.node[55].veinsmobility  co2emission  ETV
vector 1026  V2X.node[56].veinsmobility  posx  ETV
vector 1027  V2X.node[56].veinsmobility  posy  ETV
vector 1028  V2X.node[56].veinsmobility  speed  ETV
vector 1029  V2X.node[56].veinsmobility  acceleration  ETV
vector 1030  V2X.node[56].veinsmobility  co2emission  ETV
vector 1044  V2X.node[57].veinsmobility  posx  ETV
vector 1045  V2X.node[57].veinsmobility  posy  ETV
vector 1046  V2X.node[57].veinsmobility  speed  ETV
vector 1047  V2X.node[57].veinsmobility  acceleration  ETV
vector 1048  V2X.node[57].veinsmobility  co2emission  ETV
vector 1062  V2X.node[58].veinsmobility  posx  ETV
vector 1063  V2X.node[58].veinsmobility  posy  ETV
vector 1064  V2X.node[58].veinsmobility  speed  ETV
vector 1065  V2X.node[58].veinsmobility  acceleration  ETV
vector 1066  V2X.node[58].veinsmobility  co2emission  ETV
vector 1080  V2X.node[59].veinsmobility  posx  ETV
vector 1081  V2X.node[59].veinsmobility  posy  ETV
vector 1082  V2X.node[59].veinsmobility  speed  ETV
vector 1083  V2X.node[59].veinsmobility  acceleration  ETV
vector 1084  V2X.node[59].veinsmobility  co2emission  ETV
vector 1098  V2X.node[60].veinsmobility  posx  ETV
vector 1099  V2X.node[60].veinsmobility  posy  ETV
vector 1100  V2X.node[60].veinsmobility  speed  ETV
vector 1101  V2X.node[60].veinsmobility  acceleration  ETV
vector 1102  V2X.node[60].veinsmobility  co2emission  ETV
vector 1116  V2X.node[61].veinsmobility  posx  ETV
vector 1117  V2X.node[61].veinsmobility  posy  ETV
vector 1134  V2X.node[62].veinsmobility  posx  ETV
vector 1135  V2X.node[62].veinsmobility  posy  ETV
vector 1118  V2X.node[61].veinsmobility  speed  ETV
vector 1119  V2X.node[61].veinsmobility  acceleration  ETV
vector 1120  V2X.node[61].veinsmobility  co2emission  ETV
vector 1136  V2X.node[62].veinsmobility  speed  ETV
vector 1137  V2X.node[62].veinsmobility  acceleration  ETV
vector 1138  V2X.node[62].veinsmobility  co2emission  ETV
vector 1152  V2X.node[63].veinsmobility  posx  ETV
vector 1153  V2X.node[63].veinsmobility  posy  ETV
vector 1154  V2X.node[63].veinsmobility  speed  ETV
vector 1155  V2X.node[63].veinsmobility  acceleration  ETV
vector 1156  V2X.node[63].veinsmobility  co2emission  ETV
vector 1170  V2X.node[64].veinsmobility  posx  ETV
vector 1171  V2X.node[64].veinsmobility  posy  ETV
vector 1172  V2X.node[64].veinsmobility  speed  ETV
vector 1173  V2X.node[64].veinsmobility  acceleration  ETV
vector 1174  V2X.node[64].veinsmobility  co2emission  ETV
vector 1188  V2X.node[65].veinsmobility  posx  ETV
vector 1189  V2X.node[65].veinsmobility  posy  ETV
vector 1190  V2X.node[65].veinsmobility  speed  ETV
vector 1191  V2X.node[65].veinsmobility  acceleration  ETV
vector 1192  V2X.node[65].veinsmobility  co2emission  ETV
vector 1206  V2X.node[66].veinsmobility  posx  ETV
vector 1207  V2X.node[66].veinsmobility  posy  ETV
vector 1208  V2X.node[66].veinsmobility  speed  ETV
vector 1209  V2X.node[66].veinsmobility  acceleration  ETV
vector 1210  V2X.node[66].veinsmobility  co2emission  ETV
vector 1224  V2X.node[67].veinsmobility  posx  ETV
vector 1225  V2X.node[67].veinsmobility  posy  ETV
vector 1226  V2X.node[67].veinsmobility  speed  ETV
vector 1227  V2X.node[67].veinsmobility  acceleration  ETV
vector 1228  V2X.node[67].veinsmobility  co2emission  ETV
vector 1242  V2X.node[68].veinsmobility  posx  ETV
vector 1243  V2X.node[68].veinsmobility  posy  ETV
vector 1260  V2X.node[69].veinsmobility  posx  ETV
vector 1261  V2X.node[69].veinsmobility  posy  ETV
vector 1244  V2X.node[68].veinsmobility  speed  ETV
vector 1262  V2X.node[69].veinsmobility  speed  ETV
vector 1245  V2X.node[68].veinsmobility  acceleration  ETV
vector 1246  V2X.node[68].veinsmobility  co2emission  ETV
vector 1263  V2X.node[69].veinsmobility  acceleration  ETV
vector 1264  V2X.node[69].veinsmobility  co2emission  ETV
vector 1278  V2X.node[70].veinsmobility  posx  ETV
vector 1279  V2X.node[70].veinsmobility  posy  ETV
vector 1280  V2X.node[70].veinsmobility  speed  ETV
vector 1281  V2X.node[70].veinsmobility  acceleration  ETV
vector 1282  V2X.node[70].veinsmobility  co2emission  ETV
vector 1296  V2X.node[71].veinsmobility  posx  ETV
vector 1297  V2X.node[71].veinsmobility  posy  ETV
vector 1298  V2X.node[71].veinsmobility  speed  ETV
vector 1299  V2X.node[71].veinsmobility  acceleration  ETV
vector 1300  V2X.node[71].veinsmobility  co2emission  ETV
vector 1314  V2X.node[72].veinsmobility  posx  ETV
vector 1315  V2X.node[72].veinsmobility  posy  ETV
vector 1316  V2X.node[72].veinsmobility  speed  ETV
vector 1317  V2X.node[72].veinsmobility  acceleration  ETV
vector 1318  V2X.node[72].veinsmobility  co2emission  ETV
vector 1332  V2X.node[73].veinsmobility  posx  ETV
vector 1333  V2X.node[73].veinsmobility  posy  ETV
vector 1334  V2X.node[73].veinsmobility  speed  ETV
vector 1335  V2X.node[73].veinsmobility  acceleration  ETV
vector 1336  V2X.node[73].veinsmobility  co2emission  ETV
vector 1350  V2X.node[74].veinsmobility  posx  ETV
vector 1351  V2X.node[74].veinsmobility  posy  ETV
vector 1352  V2X.node[74].veinsmobility  speed  ETV
vector 1353  V2X.node[74].veinsmobility  acceleration  ETV
vector 1354  V2X.node[74].veinsmobility  co2emission  ETV
vector 1368  V2X.node[75].veinsmobility  posx  ETV
vector 1369  V2X.node[75].veinsmobility  posy  ETV
vector 1370  V2X.node[75].veinsmobility  speed  ETV
vector 1371  V2X.node[75].veinsmobility  acceleration  ETV
vector 1372  V2X.node[75].veinsmobility  co2emission  ETV
vector 1386  V2X.node[76].veinsmobility  posx  ETV
vector 1387  V2X.node[76].veinsmobility  posy  ETV
vector 1388  V2X.node[76].veinsmobility  speed  ETV
vector 1389  V2X.node[76].veinsmobility  acceleration  ETV
vector 1390  V2X.node[76].veinsmobility  co2emission  ETV
vector 1404  V2X.node[77].veinsmobility  posx  ETV
vector 1405  V2X.node[77].veinsmobility  posy  ETV
vector 1406  V2X.node[77].veinsmobility  speed  ETV
vector 1407  V2X.node[77].veinsmobility  acceleration  ETV
vector 1408  V2X.node[77].veinsmobility  co2emission  ETV
vector 1422  V2X.node[78].veinsmobility  posx  ETV
vector 1423  V2X.node[78].veinsmobility  posy  ETV
vector 1424  V2X.node[78].veinsmobility  speed  ETV
vector 1425  V2X.node[78].veinsmobility  acceleration  ETV
vector 1426  V2X.node[78].veinsmobility  co2emission  ETV
vector 1440  V2X.node[79].veinsmobility  posx  ETV
vector 1441  V2X.node[79].veinsmobility  posy  ETV
vector 1442  V2X.node[79].veinsmobility  speed  ETV
vector 1443  V2X.node[79].veinsmobility  acceleration  ETV
vector 1444  V2X.node[79].veinsmobility  co2emission  ETV
vector 1458  V2X.node[80].veinsmobility  posx  ETV
vector 1459  V2X.node[80].veinsmobility  posy  ETV
vector 1460  V2X.node[80].veinsmobility  speed  ETV
vector 1461  V2X.node[80].veinsmobility  acceleration  ETV
vector 1462  V2X.node[80].veinsmobility  co2emission  ETV
vector 1476  V2X.node[81].veinsmobility  posx  ETV
vector 1477  V2X.node[81].veinsmobility  posy  ETV
vector 1478  V2X.node[81].veinsmobility  speed  ETV
vector 1479  V2X.node[81].veinsmobility  acceleration  ETV
vector 1480  V2X.node[81].veinsmobility  co2emission  ETV
vector 1494  V2X.node[82].veinsmobility  posx  ETV
vector 1495  V2X.node[82].veinsmobility  posy  ETV
vector 1496  V2X.node[82].veinsmobility  speed  ETV
vector 1497  V2X.node[82].veinsmobility  acceleration  ETV
vector 1498  V2X.node[82].veinsmobility  co2emission  ETV
vector 1512  V2X.node[83].veinsmobility  posx  ETV
vector 1513  V2X.node[83].veinsmobility  posy  ETV
vector 1514  V2X.node[83].veinsmobility  speed  ETV
vector 1515  V2X.node[83].veinsmobility  acceleration  ETV
vector 1516  V2X.node[83].veinsmobility  co2emission  ETV
vector 1530  V2X.node[84].veinsmobility  posx  ETV
vector 1531  V2X.node[84].veinsmobility  posy  ETV
vector 1532  V2X.node[84].veinsmobility  speed  ETV
vector 1533  V2X.node[84].veinsmobility  acceleration  ETV
vector 1534  V2X.node[84].veinsmobility  co2emission  ETV
vector 1548  V2X.node[85].veinsmobility  posx  ETV
vector 1549  V2X.node[85].veinsmobility  posy  ETV
vector 1550  V2X.node[85].veinsmobility  speed  ETV
vector 1551  V2X.node[85].veinsmobility  acceleration  ETV
vector 1552  V2X.node[85].veinsmobility  co2emission  ETV
vector 1566  V2X.node[86].veinsmobility  posx  ETV
vector 1567  V2X.node[86].veinsmobility  posy  ETV
vector 1568  V2X.node[86].veinsmobility  speed  ETV
vector 1584  V2X.node[87].veinsmobility  posx  ETV
vector 1585  V2X.node[87].veinsmobility  posy  ETV
vector 1569  V2X.node[86].veinsmobility  acceleration  ETV
vector 1570  V2X.node[86].veinsmobility  co2emission  ETV
vector 1586  V2X.node[87].veinsmobility  speed  ETV
vector 1587  V2X.node[87].veinsmobility  acceleration  ETV
vector 1588  V2X.node[87].veinsmobility  co2emission  ETV
vector 1602  V2X.node[88].veinsmobility  posx  ETV
vector 1603  V2X.node[88].veinsmobility  posy  ETV
vector 1604  V2X.node[88].veinsmobility  speed  ETV
vector 1605  V2X.node[88].veinsmobility  acceleration  ETV
vector 1606  V2X.node[88].veinsmobility  co2emission  ETV
vector 1620  V2X.node[89].veinsmobility  posx  ETV
vector 1621  V2X.node[89].veinsmobility  posy  ETV
vector 1622  V2X.node[89].veinsmobility  speed  ETV
vector 1623  V2X.node[89].veinsmobility  acceleration  ETV
vector 1624  V2X.node[89].veinsmobility  co2emission  ETV
vector 1638  V2X.node[90].veinsmobility  posx  ETV
vector 1639  V2X.node[90].veinsmobility  posy  ETV
vector 1640  V2X.node[90].veinsmobility  speed  ETV
vector 1641  V2X.node[90].veinsmobility  acceleration  ETV
vector 1642  V2X.node[90].veinsmobility  co2emission  ETV
31	28021 17857 364641 1451755 46.505678702243 111.105683702541 432 1.000467757576 1.001257776013 432.31146884169 432.62317482622
30	45878 17854 364734 1452101 46.505801702243 111.105845702541 432 1.000560135794 1.001383072589 432.37637289536 432.75308442996
29	63732 17767 364459 1451584 46.505542702243 111.105547702541 430 1.00035796691 1.001134985347 430.23363513738 430.46740933125
28	81499 17227 365232 1453058 46.506682702243 111.106687702541 417 0.050571061976 0.051623054402 21.448301165964 1.1031914839237
27	98726 17065 365050 1452712 46.506170702243 111.106162702541 413 0.050525758714 0.0514107654 20.951550320024 1.0628882612422
26	115791 17352 364281 1451250 46.505406702243 111.105411702541 420 0.05023496691 0.05024705849 21.101202759199 1.0601446675697
40	133143 43180 246 2108197 0.3 139.1 1389 1.1448376231882 6.4746747481638 2782.7758125396 6030.152553982
39	176323 46252 246 2108197 0.3 139.1 1389 -0.2482334317034 2.2885582818653 120.14783936027 177.8573180657
38	222575 43211 158 2108197 0.2 139.1 1390 0.46964093480811 12.499980186027 16849.195660121 207989.28234896
37	265786 29484 69 2108197 0.1 139.1 1391 28.05 28.05 39017.55 1094442.2775
36	295270 43249 69 2108197 0.1 139.1 1391 26.58111178529 2519.3468505782 1221619.1125053 1864590021.6881
vector 1656  V2X.node[91].veinsmobility  posx  ETV
vector 1657  V2X.node[91].veinsmobility  posy  ETV
vector 1658  V2X.node[91].veinsmobility  speed  ETV
vector 1659  V2X.node[91].veinsmobility  acceleration  ETV
vector 1660  V2X.node[91].veinsmobility  co2emission  ETV
vector 1674  V2X.node[92].veinsmobility  posx  ETV
vector 1675  V2X.node[92].veinsmobility  posy  ETV
vector 1676  V2X.node[92].veinsmobility  speed  ETV
vector 1677  V2X.node[92].veinsmobility  acceleration  ETV
vector 1678  V2X.node[92].veinsmobility  co2emission  ETV
vector 1692  V2X.node[93].veinsmobility  posx  ETV
vector 1693  V2X.node[93].veinsmobility  posy  ETV
vector 1694  V2X.node[93].veinsmobility  speed  ETV
vector 1695  V2X.node[93].veinsmobility  acceleration  ETV
vector 1696  V2X.node[93].veinsmobility  co2emission  ETV
vector 1710  V2X.node[94].veinsmobility  posx  ETV
vector 1711  V2X.node[94].veinsmobility  posy  ETV
vector 1712  V2X.node[94].veinsmobility  speed  ETV
vector 1713  V2X.node[94].veinsmobility  acceleration  ETV
vector 1714  V2X.node[94].veinsmobility  co2emission  ETV
vector 1728  V2X.node[95].veinsmobility  posx  ETV
vector 1729  V2X.node[95].veinsmobility  posy  ETV
vector 1730  V2X.node[95].veinsmobility  speed  ETV
vector 1731  V2X.node[95].veinsmobility  acceleration  ETV
vector 1732  V2X.node[95].veinsmobility  co2emission  ETV
vector 1746  V2X.node[96].veinsmobility  posx  ETV
vector 1747  V2X.node[96].veinsmobility  posy  ETV
vector 1748  V2X.node[96].veinsmobility  speed  ETV
vector 1749  V2X.node[96].veinsmobility  acceleration  ETV
vector 1750  V2X.node[96].veinsmobility  co2emission  ETV
vector 1764  V2X.node[97].veinsmobility  posx  ETV
vector 1765  V2X.node[97].veinsmobility  posy  ETV
vector 1766  V2X.node[97].veinsmobility  speed  ETV
vector 1767  V2X.node[97].veinsmobility  acceleration  ETV
vector 1768  V2X.node[97].veinsmobility  co2emission  ETV
vector 1782  V2X.node[98].veinsmobility  posx  ETV
vector 1783  V2X.node[98].veinsmobility  posy  ETV
vector 1784  V2X.node[98].veinsmobility  speed  ETV
vector 1785  V2X.node[98].veinsmobility  acceleration  ETV
vector 1786  V2X.node[98].veinsmobility  co2emission  ETV
vector 1800  V2X.node[99].veinsmobility  posx  ETV
vector 1801  V2X.node[99].veinsmobility  posy  ETV
vector 1802  V2X.node[99].veinsmobility  speed  ETV
vector 1803  V2X.node[99].veinsmobility  acceleration  ETV
vector 1804  V2X.node[99].veinsmobility  co2emission  ETV
13	340958 34593 217323 2035711 32.826010701194 136.091033702656 825 1.000467783243 1.001212808582 825.59186513207 826.1841784307
12	375551 34608 217469 2036002 32.826159701194 136.091156702656 826 1.000554079819 1.001325105158 826.7129378343 827.42651141457
11	410159 34621 217169 2035419 32.825861701194 136.090871702656 826 1.000357992577 1.001103017916 826.44162376308 826.88350628176
10	444780 34279 217656 2036483 32.826684701194 136.091733702656 818 0.050574105158 0.051610105158 42.069813822937 2.1636589203456
9	479059 33134 217019 2035128 32.825725701194 136.090722702656 809 0.050525779452 0.050997831164 41.03821879714 2.0817739808393
8	512193 33160 216873 2034462 32.825408701194 136.090405702656 810 0.050234987274 0.050247057167 40.695252239983 2.0445723013278
22	545353 51913 246 3171373 0.3 180.9 1807 0.973 6.717256137657 3267.8958789037 7237.8883380908
21	597266 56398 246 3171373 0.3 180.9 1807 -0.50000000000008 2.5381769327697 120.26548027265 428.86775621166
20	653664 53315 158 3171373 0.2 180.9 1808 0 12.499964209653 16856.184580208 199195.6563374
19	706979 39016 69 3171373 0.1 180.9 1809 21.95 21.95 39707.55 871580.72249999
18	745995 56918 69 3171373 0.1 180.9 1809 26.011592601446 2518.8457836338 1500390.0092522 2199720179.3659
103	802913 35202 229502 2056553 34.06103670031 136.946041702842 820 1.000467780858 1.001212806681 820.58773895198 821.17592274088
102	838115 35231 229656 2056939 34.06117270031 136.946203702842 821 1.000554077434 1.001325103257 821.70950326374 822.41963991412
101	873346 35272 229182 2055781 34.06054470031 136.945575702842 822 1.000357990192 1.001103016015 822.43748369034 822.87522257482
100	908618 34771 229814 2057325 34.06167170031 136.946663702842 810 0.050574103257 0.051620145327 41.659046984193 2.1425677547354
99	943389 34052 229340 2056262 34.06086170031 136.945892702842 812 0.050525784107 0.050997826627 41.192766302286 2.0897339534627
98	977441 34000 229028 2055303 34.06040870031 136.945400702842 811 0.050234987302 0.050247051205 40.745441338159 2.0470912441602
112	1011441 55512 4556 3206057 2.6 182.2 1797 0.973 6.4672459263632 3255.3552367872 7094.3901833405
111	1066953 62522 4556 3206057 2.6 182.2 1797 -0.50000000000008 2.0427532522276 88.922518498337 343.3537693814
110	1129475 59270 4264 3206057 2.5 182.2 1798 1.6364576470825e-10 12.499990740158 16849.572892769 196824.72351664
109	1188745 40711 3996 3206057 2.4 182.2 1799 21.95 21.95 39488.05 866762.69749999
108	1229456 58516 3996 3206057 2.4 182.2 1799 26.166077824806 2518.1476378153 1473559.4372585 2125329173.1878
54	1287972 66901 1375 3985805 1.2 212.4 2113 25.266189369694 202.3373403392 240374.37654333 32876377.019168
55	1354873 46012 1375 3985805 1.2 212.4 2113 28.05 28.05 59269.650000002 1662513.6825
56	1400885 66881 1571 3985805 1.3 212.4 2112 1.3819449225977 1.3888826160821 2925.953541359 4053.6089082478
57	1467766 72775 1767 3985805 1.4 212.4 2111 -0.068304313172121 0.065795859441602 -0.012285781881978 1.6622787594533
58	1540541 66865 1767 3985805 1.4 212.4 2111 1.1541622059634 1.1992546969513 2484.8254891926 2925.0377213589
72	1607406 66816 1963 3985805 1.5 212.4 2110 25.204256049052 201.21095136267 237937.18645489 32336736.663012
73	1674222 45958 1963 3985805 1.5 212.4 2110 28.05 28.05 59185.500000002 1660153.275
74	1720180 66807 2184 3985805 1.6 212.4 2109 0.53394676127368 1.3888853062542 2908.8497839976 4017.4331955291
75	1786987 72597 2405 3985805 1.7 212.4 2108 -0.067696773460031 0.63491470667206 8.5453121682563 4.2305129436319
76	1859584 66768 2405 3985805 1.7 212.4 2108 1.1543659778308 1.2375859722971 2482.7206298147 2924.2856153498
90	1926352 66623 3508 3985805 2.2 212.4 2103 25.193856373711 200.08422450412 235410.82749952 31800231.438639
91	1992975 45834 3508 3985805 2.2 212.4 2103 28.05 28.05 58989.150000002 1654645.6575
92	2038809 66621 3752 3985805 2.3 212.4 2102 0.2510149910721 1.3888884189105 2890.3246024302 3986.2425210863
93	2105430 72402 3996 3985805 2.4 212.4 2101 -0.067891177595363 0.69610913505375 11.344379901852 5.1920029555016
94	2177832 66558 3996 3985805 2.4 212.4 2101 1.1542953581436 1.2140517805775 2474.3353227653 2914.2154992099
126	2244390 68647 4264 3985805 2.5 212.4 2100 1839.1096083385 2524.0943516137 4581707.6951302 10078478138.767
127	2313037 47880 4264 3985805 2.5 212.4 2100 21.95 21.95 46094.999999999 1011785.25
128	2360917 68624 4556 3985805 2.6 212.4 2099 1.3819494584184 1.388885479401 2908.0687789468 4029.0051234974
129	2429541 74375 4849 3985805 2.7 212.4 2098 -0.068886522074334 0.067439668281521 -0.042817911825195 1.6834810759632
130	2503916 68593 4849 3985805 2.7 212.4 2098 1.1539675790658 1.1998105965438 2469.519764712 2907.0197430583
144	2572509 68533 5141 3985805 2.8 212.4 2097 1843.5101731172 2524.2475164405 4583278.2974677 10099248879.028
145	2641042 47823 5141 3985805 2.8 212.4 2097 21.95 21.95 46029.149999999 1010339.8425
146	2688865 68537 5457 3985805 2.9 212.4 2096 0.50709156958166 1.3888782073482 2890.5046323825 3991.8699040224
147	2757402 74309 6086 3985805 3 212.4 2095 -0.071225141505051 0.66224770826428 8.778015021736 4.4515047556577
148	2831711 68496 6086 3985805 3 212.4 2095 1.1531713731392 1.2372970430135 2467.4280513589 2906.3013511176
162	2900207 68483 6719 3985805 3.2 212.4 2093 25.192213490578 198.95658675245 232823.13376588 31267950.434135
163	2968690 47749 6719 3985805 3.2 212.4 2093 28.05 28.05 58708.650000002 1646777.6325
164	3016439 68423 7059 3985805 3.3 212.4 2092 0.19213974960883 1.3888830812114 2871.9166650319 3957.9533106328
165	3084862 74119 7399 3985805 3.4 212.4 2091 -0.069797041479465 0.59705302521997 11.922351301671 5.0507869942084
166	3158981 68383 7399 3985805 3.4 212.4 2091 1.1535655993565 1.210046162003 2462.372471536 2899.9072670476
180	3227364 68318 8079 3985805 3.6 212.4 2089 1847.8914161273 2524.2162827376 4572168.048443 10087950992.775
181	3295682 47673 8079 3985805 3.6 212.4 2089 21.95 21.95 45853.549999999 1006485.4225
182	3343355 68325 8443 3985805 3.7 212.4 2088 0.29242939858175 1.3888797095553 2871.7175915563 3960.7769901301
183	3411680 73966 8808 3985805 3.8 212.4 2087 -0.074931924528301 0.63812468319272 10.922286108676 5.0409480497749
184	3485646 68288 8808 3985805 3.8 212.4 2087 1.1514722116199 1.2153458905481 2457.8608908626 2894.8453066644
198	3553934 68217 10632 3985805 4.3 212.4 2082 25.190716824645 155.76636867896 184906.97377917 18734241.393324
199	3622151 47541 10632 3985805 4.3 212.4 2082 28.05 28.05 58400.100000002 1638122.805
200	3669692 61248 11020 3985805 4.4 212.4 2081 0 1.388887077882 2158.5416062979 2961.9862308107
201	3730940 65421 11409 3985805 4.5 212.4 2080 -2 1.482741541844 12.272261811275 50.076139047463
202	3796361 63135 11409 3985805 4.5 212.4 2080 0.973 1.5480356695437 2349.4620285284 2670.7036029066
216	3859496 68053 11797 3985805 4.6 212.4 2079 1852.2744460059 2524.230650782 4555956.4583478 10063722246.638
217	3927549 47481 11797 3985805 4.6 212.4 2079 21.95 21.95 45634.049999999 1001667.3975
218	3975030 68046 12209 3985805 4.7 212.4 2078 0.22900292470322 1.3888822461967 2853.3047326043 3932.362787037
219	4043076 73695 12621 3985805 4.8 212.4 2077 -0.068815965434934 0.56393047170979 11.589283083796 4.8575968112931
220	4116771 67969 12621 3985805 4.8 212.4 2077 1.1539808950275 1.2087023624974 2445.9204332513 2880.5766337843
234	4184740 67807 15915 3985805 5.5 212.4 2070 25.191317487649 154.63971022865 182724.75587635 18388044.691383
235	4252547 47303 15915 3985805 5.5 212.4 2070 28.05 28.05 58063.500000002 1628681.175
236	4299850 69607 16351 3985805 5.6 212.4 2069 6.9761828409624e-13 1.3888733983315 2139.8794597958 2915.0938035442
237	4369457 74141 16787 3985805 5.7 212.4 2068 -0.80705055279589 1.042045229039 12.301114571101 18.677589614745
238	4443598 65064 16787 3985805 5.7 212.4 2068 0.973 1.3084629128597 2398.5951828986 2785.1129664633
252	4508662 67392 22019 3985805 6.8 212.4 2057 25.197132822741 153.51355662638 180531.11226185 18045798.82864
253	4576054 47045 22019 3985805 6.8 212.4 2057 28.05 28.05 57698.850000002 1618452.7425
254	4623099 69176 22479 3985805 6.9 212.4 2056 6.9764040899766e-13 1.3888865082651 2121.2986419235 2876.0993580753
255	4692275 73657 22939 3985805 7 212.4 2055 -0.3620815643618 0.64580587731509 11.93666909062 12.155097020434
256	4765932 64869 22939 3985805 7 212.4 2055 0.973 1.2152913410233 2380.34508604 2760.70810752
270	4830801 67041 27543 3985805 8 212.4 2045 25.193790340446 152.38835069127 178377.00754101 17708814.014733
271	4897842 46807 27543 3985805 8 212.4 2045 28.05 28.05 57362.250000002 1609011.1125
272	4944649 68817 28027 3985805 8.1 212.4 2044 6.9764311247999e-13 1.3888860563764 2102.832673695 2840.0932499803
273	5013466 73230 28511 3985805 8.2 212.4 2043 -0.30104828504181 0.51456157017493 12.189101948286 9.9892857112696
274	5086696 64736 28511 3985805 8.2 212.4 2043 0.973 1.2106001819257 2364.0197213718 2739.3140556791
288	5151432 66711 34316 3985805 9.3 212.4 2032 25.196764022367 151.26221125218 176212.55703127 17375885.533175
289	5218143 46551 34316 3985805 9.3 212.4 2032 28.05 28.05 56997.600000002 1598782.68
290	5264694 68343 34824 3985805 9.4 212.4 2031 6.9769871359783e-13 1.3888846844089 2084.1787595116 2805.6606366509
291	5333037 72686 35332 3985805 9.5 212.4 2030 -0.23763619459916 0.48598006823455 11.966159644245 8.701550715964
292	5405723 64574 35332 3985805 9.5 212.4 2030 0.973 1.2035347854173 2347.4432790032 2718.517141442
306	5470297 66467 37875 3985805 10 212.4 2025 1865.3868539862 2518.8098920734 4446213.8932964 9835975606.5441
307	5536764 46411 37875 3985805 10 212.4 2025 21.95 21.95 44448.749999999 975650.06249998
308	5583175 66419 38407 3985805 10.1 212.4 2024 0.40631459923347 1.3923250011888 2774.4441484459 3815.879531384
309	5649594 71581 38939 3985805 10.2 212.4 2023 -0.13205004118527 0.49383450987949 9.7708882113751 7.0278639420379
310	5721175 66095 38939 3985805 10.2 212.4 2023 0.973 1.2218889973698 2377.3679024977 2795.5133790981
324	5787270 66208 40536 3985805 10.5 212.4 2020 25.191791053575 150.13675557843 174088.03389676 17048212.85959
325	5853478 46308 40536 3985805 10.5 212.4 2020 28.05 28.05 56661.000000002 1589341.05
326	5899786 67966 41644 3985805 10.6 212.4 2019 6.9764756120569e-13 1.3888851815589 2065.7210189796 2772.385810196
327	5967752 72322 42200 3985805 10.7 212.4 2018 -0.22041169946272 0.52160611877567 12.374518085598 8.2492340485713
328	6040074 64451 42200 3985805 10.7 212.4 2018 0.973 1.2025651789586 2332.7586820053 2700.6394619493
342	6104525 66171 43313 3985805 10.9 212.4 2016 1875.1593555437 2524.2360488787 4443137.4410065 9864983093.9146
343	6170696 46224 43313 3985805 10.9 212.4 2016 21.95 21.95 44251.199999999 971313.83999998
344	6216920 66140 43893 3985805 11 212.4 2015 0.20809134996571 1.3888874170936 2756.1301416268 3788.4303768503
345	6283060 71605 44473 3985805 11.1 212.4 2014 -0.090857021504804 0.5258400107083 11.74044649663 4.508498541367
346	6354665 66123 44473 3985805 11.1 212.4 2014 1.1463968038993 1.2143089251184 2371.2718682828 2792.1346881046
360	6420788 65904 48538 3985805 11.8 212.4 2007 25.192955436394 149.01139534594 171953.30012309 16724528.161658
361	6486692 46037 48538 3985805 11.8 212.4 2007 28.05 28.05 56296.350000002 1579112.6175
362	6532729 67558 49142 3985805 11.9 212.4 2006 6.9760252577456e-13 1.3888878262822 2047.0908008508 2739.7999403634
363	6600287 71820 49746 3985805 12 212.4 2005 -0.20373824021283 0.50137772138769 12.295577376042 7.7109910958852
364	6672107 64292 49746 3985805 12 212.4 2005 0.973 1.2048332187199 2316.6601986898 2680.8964388385
378	6736399 65549 56991 3985805 13.1 212.4 1994 25.19358187069 145.81708466352 167948.83509856 15990736.309256
379	6801948 45768 56991 3985805 13.1 212.4 1994 28.05 28.05 55931.700000002 1568884.185
380	6847716 58627 57619 3985805 13.2 212.4 1993 0 1.3888848142087 1994.1790371671 2705.2492122603
381	6906343 62478 58248 3985805 13.3 212.4 1992 -2 1.4733920067141 12.23529162816 31.332469724043
382	6968821 59974 58248 3985805 13.3 212.4 1992 0.973 1.537200340617 2234.3992928629 2523.8796953039
396	7028795 64914 65783 3985805 14.4 212.4 1981 25.194107373721 144.68997404368 165865.25062855 15683308.519107
397	7093709 45497 65783 3985805 14.4 212.4 1981 28.05 28.05 55567.050000002 1558655.7525
398	7139206 66998 66435 3985805 14.5 212.4 1980 6.9760729995827e-13 1.3888702260738 1975.639430013 2665.5585404424
399	7206204 71212 67087 3985805 14.6 212.4 1979 -0.43029871550296 1.0326228671784 12.232868023252 14.023025483529
400	7277416 61906 67087 3985805 14.6 212.4 1979 0.973 1.3215027652109 2285.5270403797 2643.6264238339
414	7339322 64368 81431 3985805 16.7 212.4 1958 1888.2730421603 2518.8076794678 4322411.1818971 9608475730.6537
415	7403690 45018 81431 3985805 16.7 212.4 1958 21.95 21.95 42978.099999999 943369.29499999
416	7448708 64381 82107 3985805 16.8 212.4 1957 0.38110542562791 1.3922564506396 2677.6344725406 3678.2268220637
417	7513089 69374 82783 3985805 16.9 212.4 1956 -0.12938242274779 0.46399364313639 10.043206861985 6.5275854555137
418	7582463 64097 82783 3985805 16.9 212.4 1956 0.973 1.2220016254985 2299.5049804018 2704.7059475294
432	7646560 64081 87519 3985805 17.6 212.4 1949 1898.0425878791 2524.2472196868 4318669.5711798 9635005027.0033
433	7710641 44831 87519 3985805 17.6 212.4 1949 21.95 21.95 42780.549999999 939033.07249999
434	7755472 64091 88219 3985805 17.7 212.4 1948 0.17655903712989 1.3888834015945 2659.2310926902 3650.871506847
435	7819563 69323 88919 3985805 17.8 212.4 1947 -0.077102139546052 0.53590920333733 12.087516573145 4.1937523315754
436	7888886 64042 88919 3985805 17.8 212.4 1947 1.1508283748867 1.2085314758302 2292.2324731507 2698.8565188998
450	7952928 63744 96616 3985805 18.8 212.4 1937 1902.4259905997 2524.2555444626 4296747.4184065 9595565610.0793
451	8016672 44581 96616 3985805 18.8 212.4 1937 21.95 21.95 42517.149999999 933251.44249999
452	8061253 63736 97341 3985805 18.9 212.4 1936 0.14418109192983 1.3888759839416 2640.5850173371 3624.1807785447
453	8124989 68956 98065 3985805 19 212.4 1935 -0.073911259532544 0.51570917100703 12.429483535512 4.2217252013179
454	8193945 63679 98065 3985805 19 212.4 1935 1.1437729864672 1.2033230187524 2278.0300034657 2682.0494500463
468	8257624 63260 108924 3985805 20.4 212.4 1921 26.581112758418 141.32063441796 158821.35447921 14713169.431414
469	8320884 44238 108924 3985805 20.4 212.4 1921 28.05 28.05 53884.050000002 1511447.6025
470	8365122 65058 109672 3985805 20.5 212.4 1920 6.9412191178052e-13 1.3920619716312 1897.0921324847 2533.3579763663
471	8430180 68942 110420 3985805 20.6 212.4 1919 -0.25081121691559 0.53001849858081 10.26144085198 10.329572418288
472	8499122 60382 110420 3985805 20.6 212.4 1919 0.973 1.221713527236 2212.7566956543 2556.0243586478
486	8559504 62927 116408 3985805 21.4 212.4 1911 25.196743197411 138.81069590161 154233.59337458 13995124.866783
487	8622431 44020 116408 3985805 21.4 212.4 1911 28.05 28.05 53603.550000002 1503579.5775
488	8666451 64726 117180 3985805 21.5 212.4 1910 6.976079054832e-13 1.3888878608818 1878.4076118608 2499.5440731816
489	8731177 68706 117953 3985805 21.6 212.4 1909 -0.20536365889671 0.52218797262847 11.842228052687 7.859533539066
490	8799883 60495 117953 3985805 21.6 212.4 1909 0.973 1.2053342246818 2203.1451932498 2546.4439278405
504	8860378 61804 144971 3985805 24.9 212.4 1876 1915.5410460102 2518.8101037274 4167367.9836856 9315865497.3218
505	8922182 43256 144971 3985805 24.9 212.4 1876 21.95 21.95 41178.2 903861.48999999
506	8965438 61822 145767 3985805 25 212.4 1875 0.36781635978432 1.3923281926351 2561.7181097822 3515.3654133611
507	9027260 66572 146563 3985805 25.1 212.4 1874 -0.13127974179043 0.47150503256159 10.126404782137 6.5080879697335
508	9093832 61423 146563 3985805 25.1 212.4 1874 0.973 1.2212970367841 2201.2235181546 2587.3442150863
522	9155255 61546 152928 3985805 25.8 212.4 1867 1925.311282914 2524.2527503969 4162820.1344914 9339331287.356
523	9216801 43060 152928 3985805 25.8 212.4 1867 21.95 21.95 40980.65 899525.26749999
524	9259861 61533 153748 3985805 25.9 212.4 1866 0.16396248136884 1.3888855719609 2543.599238172 3488.9207720426
525	9321394 66519 154568 3985805 26 212.4 1865 -0.084858999517707 0.52946400078144 12.248255673055 4.2579419730742
526	9387913 61474 154568 3985805 26 212.4 1865 1.1481423792551 1.2084006904403 2195.6316668816 2585.0633646671
540	9449387 61105 163592 3985805 27.1 212.4 1854 1929.6916136537 2524.2374526055 4138008.7559174 9292124647.1599
541	9510492 42778 163592 3985805 27.1 212.4 1854 21.95 21.95 40695.3 893261.83499999
542	9553270 61126 164436 3985805 27.2 212.4 1853 0.17784956155552 1.3888879771758 2524.8083364075 3462.2758398352
543	9614396 66096 165280 3985805 27.3 212.4 1852 -0.075250519116046 0.48196165411528 12.101121616637 3.922652000501
544	9680492 61020 165280 3985805 27.3 212.4 1852 1.1471613476284 1.2042911481812 2180.2785421835 2566.9156597791
558	9741512 61099 165280 3985805 27.3 212.4 1852 26.586449912716 135.44159436598 146714.82671426 12973477.634774
559	9802611 42734 165280 3985805 27.3 212.4 1852 28.05 28.05 51948.600000001 1457158.23
560	9845345 54326 166148 3985805 27.4 212.4 1851 0 3.1533650399503 1799.6257035063 2681.3845090354
561	9899671 57426 167017 3985805 27.5 212.4 1850 -0.343790399421 2.5322518969763 10.312522436036 67.898152234941
562	9957097 54404 167017 3985805 27.5 212.4 1850 0.973 2.5082123313638 2051.0348706813 2304.7061596137
576	10011501 60777 173958 3985805 28.2 212.4 1843 25.190716824645 126.86028229469 139124.36462838 11623634.711987
577	10072278 42538 173958 3985805 28.2 212.4 1843 28.05 28.05 51696.150000001 1450077.0075
578	10114816 62933 174850 3985805 28.3 212.4 1842 6.9761304421252e-13 1.3888869080143 1681.2093061771 2251.7277121217
579	10177749 66622 175742 3985805 28.4 212.4 1841 -0.18156307136652 1.3729098689182 12.275868262485 21.90082133006
580	10244371 56998 175742 3985805 28.4 212.4 1841 0.973 1.551980070126 2117.5979782817 2440.4513198058
594	10301369 59189 219524 3985805 33.1 212.4 1794 1942.8061554398 2518.8602012757 4010059.7992846 9014592481.1488
595	10360558 41470 219524 3985805 33.1 212.4 1794 21.95 21.95 39378.3 864353.68499999
596	10402028 59225 220464 3985805 33.2 212.4 1793 0.32675541339013 1.3923825251834 2446.2320913773 3354.0475592894
597	10461253 63744 221404 3985805 33.3 212.4 1792 -0.12515658201692 0.50227512660186 10.599836706416 6.2489516198674
598	10524997 58910 221404 3985805 33.3 212.4 1792 0.973 1.2207658571263 2105.8298394292 2476.0552840181
612	10583907 58893 230849 3985805 34.2 212.4 1783 26.582561282566 123.49030707767 132676.82925782 10838735.414263
613	10642800 41230 230849 3985805 34.2 212.4 1783 28.05 28.05 50013.150000001 1402868.8575
614	10684030 60963 231840 3985805 34.3 212.4 1782 6.941159721274e-13 1.3921310158613 1602.3977407875 2117.9410028202
615	10744993 64299 232828 3985805 34.4 212.4 1781 -0.19434111798731 0.74054118192327 10.429518069119 11.178661014013
616	10809292 55258 232828 3985805 34.4 212.4 1781 0.973 1.2424887590891 2043.6342459906 2349.7787281404
630	10864550 57378 278274 3985805 38.8 212.4 1737 1957.9107047815 2518.7264795101 3892857.2461226 8770840563.9094
631	10921928 40226 278274 3985805 38.8 212.4 1737 21.95 21.95 38127.15 836890.94249999
632	10962154 57387 279285 3985805 38.9 212.4 1736 0.80209483799863 1.3961944659746 2381.4417502079 3273.0199889475
633	11019541 61719 280297 3985805 39 212.4 1735 -0.18387589643615 0.21492989439084 5.9202499656352 6.1897548647415
634	11081260 56707 280297 3985805 39 212.4 1735 0.973 1.2420519832594 2032.5528342603 2384.2298486372
648	11137967 57242 284342 3985805 39.3 212.4 1732 1967.6836671263 2524.2535026448 3897080.9382179 8814580833.7434
649	11195209 40118 284342 3985805 39.3 212.4 1732 21.95 21.95 38017.4 834481.92999999
650	11235327 57271 285378 3985805 39.4 212.4 1731 0.24617918360332 1.3888756427688 2363.6705880794 3243.5791977723
651	11292598 61901 286414 3985805 39.5 212.4 1730 -0.10594086854 0.57469769619322 11.420073529514 4.3161095193327
652	11354499 57191 286414 3985805 39.5 212.4 1730 0.973 1.2112782139459 2036.8563302455 2398.3601754816
666	11411690 57107 289522 3985805 39.8 212.4 1727 26.583542301826 119.61033128312 124972.00766693 9880557.7189219
667	11468797 40008 289522 3985805 39.8 212.4 1727 28.05 28.05 48442.350000001 1358807.9175
668	11508805 59126 290582 3985805 39.9 212.4 1726 6.9412758049096e-13 1.394003052074 1538.2841813785 2025.374582427
669	11567931 62338 291645 3985805 40 212.4 1725 -0.17157462035134 0.62070370940684 5.90963926581 8.9615280522009
670	11630269 53633 291645 3985805 40 212.4 1725 0.973 1.238753030802 1975.0074553053 2266.4928625246
684	11683902 56912 295885 3985805 40.4 212.4 1721 25.19658978863 117.10043093917 121026.39468275 9333400.7252694
685	11740814 39878 295885 3985805 40.4 212.4 1721 28.05 28.05 48274.050000001 1354087.1025
686	11780692 58912 296969 3985805 40.5 212.4 1720 6.9761495502362e-13 1.3888666017641 1519.8795770219 1989.8967893832
687	11839604 62240 298053 3985805 40.6 212.4 1719 -0.1498605886128 0.59499627080003 11.139022833228 7.4279019996992
688	11901844 54219 298053 3985805 40.6 212.4 1719 0.973 1.2149183411645 1975.6147711753 2274.0795037245
702	11956063 55473 347059 3985805 44.9 212.4 1676 1980.7964401708 2518.8239427917 3777685.6632766 8556482111.9445
703	12011536 38896 347059 3985805 44.9 212.4 1676 21.95 21.95 36788.2 807500.98999999
704	12050432 55474 348119 3985805 45 212.4 1675 0.36505090073836 1.3921543983367 2284.9004908602 3131.9735760773
705	12105906 59612 349179 3985805 45.1 212.4 1674 -0.13377090633985 0.471337045325 10.259026023954 6.3000789872425
706	12165518 55189 349179 3985805 45.1 212.4 1674 0.973 1.2219758999539 1967.0248487812 2312.7946337783
720	12220707 55173 357663 3985805 45.9 212.4 1666 26.577576856203 113.73169803867 115114.21325064 8660124.7153605
721	12275880 38678 357663 3985805 45.9 212.4 1666 28.05 28.05 46731.300000001 1310812.965
722	12314558 57149 358747 3985805 46 212.4 1665 6.94110212132e-13 1.3916494793432 1441.4358520611 1864.475293517
723	12371707 60202 359831 3985805 46.1 212.4 1664 -0.16960034966322 0.53240147471385 10.485002812096 7.2737668556733
724	12431909 52652 359831 3985805 46.1 212.4 1664 0.973 1.2227844002723 1909.3056353184 2194.6087161176
738	12484561 53780 409594 3985805 50.4 212.4 1621 1996.1260304458 2518.8727488152 3719197.8655198 8562365972.2679
739	12538341 37698 409594 3985805 50.4 212.4 1621 21.95 21.95 35580.95 781001.85249999
740	12576039 47165 411854 3985805 50.5 212.4 1620 0 7.1185652654249 2219.8316464153 6362.4597614719
741	12623204 49548 412986 3985805 50.6 212.4 1619 -0.5 2.5459678534876 6.1568248748271 136.0974383282
742	12672752 46513 412986 3985805 50.6 212.4 1619 0.973 4.334302633196 1828.6477325139 2210.4294649385
756	12719265 53560 417515 3985805 51 212.4 1615 2163.3189402208 2524.2441508659 3759773.5515137 8767113995.1069
757	12772825 37566 417515 3985805 51 212.4 1615 21.95 21.95 35449.25 778111.03749999
758	12810391 55348 418671 3985805 51.1 212.4 1614 6.9763028362645e-13 1.3888882237095 1533.4663570665 2075.3323351806
759	12865739 58625 419827 3985805 51.2 212.4 1613 -0.42288255266654 1.3904693946429 11.211462612117 24.54052419523
760	12924364 50817 419827 3985805 51.2 212.4 1613 0.973 1.5754169948424 1861.6023642281 2152.3758694036
774	12975181 53390 423299 3985805 51.5 212.4 1610 26.602538834627 109.85147477781 107860.47686068 7829736.5871038
775	13028571 37458 423299 3985805 51.5 212.4 1610 28.05 28.05 45160.500000001 1266752.025
776	13066029 55306 424479 3985805 51.6 212.4 1609 6.9409569668202e-13 1.3952497326284 1376.7539979203 1774.4069453403
777	13121335 58262 425659 3985805 51.7 212.4 1608 -0.21098013165193 0.2420060308213 5.8002701167778 6.3127145219384
778	13179597 51046 425659 3985805 51.7 212.4 1608 0.973 1.2311681878198 1842.1086867666 2114.3533946653
792	13230643 53177 430380 3985805 52.1 212.4 1604 25.202120991869 107.34165908452 104207.69876153 7361379.3417608
793	13283820 37328 430380 3985805 52.1 212.4 1604 28.05 28.05 44992.200000001 1262031.21
794	13321148 55144 431608 3985805 52.2 212.4 1603 6.9760887453921e-13 1.3888838547233 1358.4818008268 1740.6081393662
795	13376292 58130 432836 3985805 52.3 212.4 1602 -0.1347210800179 0.52495487302725 10.867616149308 5.9557231589888
796	13434422 51339 432836 3985805 52.3 212.4 1602 0.973 1.2107889633806 1839.2837845634 2114.7685727827
810	13485761 53200 430380 3985805 52.1 212.4 1604 2167.699521235 2524.22977912 3737333.4371235 8721935798.6297
811	13538961 37328 430380 3985805 52.1 212.4 1604 21.95 21.95 35207.8 772811.20999999
812	13576289 54931 431608 3985805 52.2 212.4 1603 6.9762513399847e-13 1.3888642978434 1514.7142691749 2033.1175959048
813	13631220 58167 432836 3985805 52.3 212.4 1602 -0.31452749967579 1.0619133377493 11.745820907107 14.256696687033
814	13689387 50737 432836 3985805 52.3 212.4 1602 0.973 1.3361482025589 1846.3694071094 2131.6202081691
828	13740124 51447 501603 3985805 57.6 212.4 1549 26.586860511247 103.97328628566 98697.043546276 6787882.6506998
829	13791571 36128 501603 3985805 57.6 212.4 1549 28.05 28.05 43449.450000001 1218757.0725
830	13827699 53327 502855 3985805 57.7 212.4 1548 3.4941474415681e-13 1.3918102838108 1279.9748575995 1617.7897257171
831	13881026 56135 504107 3985805 57.8 212.4 1547 -0.15820997132373 0.47210207844596 10.103337549612 6.3764075061021
832	13937161 49749 504107 3985805 57.8 212.4 1547 0.973 1.2181119540023 1772.685769386 2034.7068907985
846	13986910 51363 505359 3985805 57.9 212.4 1546 2180.8108162738 2518.8087779403 3607833.0038413 8431387392.2803
847	14038273 36062 505359 3985805 57.9 212.4 1546 21.95 21.95 33934.700000001 744866.66499999
848	14074335 53055 506636 3985805 58 212.4 1545 6.941515341497e-13 1.3921760907519 1436.2087439704 1897.8986457606
849	14127390 55994 509184 3985805 58.1 212.4 1544 -0.26080707378404 0.51889614186336 10.076327967502 9.5029063140179
850	14183384 49079 509184 3985805 58.1 212.4 1544 0.973 1.2188060855928 1775.1041226618 2044.8293944317
864	14232463 51173 514289 3985805 58.5 212.4 1540 25.191965257787 101.46449335262 95129.832804962 6360408.1596938
865	14283636 35932 514289 3985805 58.5 212.4 1540 28.05 28.05 43197 1211675.85
866	14319568 53049 515589 3985805 58.6 212.4 1539 3.5117766777899e-13 1.3887872525477 1261.7301046317 1587.6781108831
867	14372617 55813 516889 3985805 58.7 212.4 1538 -0.13502968596775 0.54805815040047 12.254172184142 5.7847022027794
868	14428430 49823 516889 3985805 58.7 212.4 1538 0.973 1.2083054874473 1764.1669022204 2026.4262408627
882	14478253 51089 518190 3985805 58.8 212.4 1537 2190.5773487079 2524.2500089026 3598466.6650652 8436564863.5548
883	14529342 35866 518190 3985805 58.8 212.4 1537 21.95 21.95 33737.150000001 740530.44249999
884	14565208 52697 519514 3985805 58.9 212.4 1536 6.9762022477601e-13 1.3888432660056 1417.9220122102 1864.1881022295
885	14617905 55698 520841 3985805 59 212.4 1535 -0.20971886361297 0.52556113034799 12.122388109679 7.9852654666157
886	14673603 49173 520841 3985805 59 212.4 1535 0.973 1.2086850983651 1765.4035505921 2034.0264909676
900	14722776 49242 597628 3985805 64.5 212.4 1480 26.588244833167 98.097072011305 89730.904837761 5838821.1864526
901	14772018 34624 597628 3985805 64.5 212.4 1480 28.05 28.05 41514 1164467.7
902	14806642 51121 598976 3985805 64.6 212.4 1479 3.4946142485581e-13 1.3904585353123 1182.8383131098 1468.2579903554
903	14857763 53676 600327 3985805 64.7 212.4 1478 -0.161660693503 0.44140648680557 10.190049636493 5.8232689047232
904	14911439 47867 600327 3985805 64.7 212.4 1478 0.973 1.2159367779891 1689.2020435275 1934.2499007114
918	14959306 49256 601675 3985805 64.8 212.4 1477 2203.852984685 2518.8111435535 3465924.7162267 8142686964.2707
919	15008562 34558 601675 3985805 64.8 212.4 1477 21.95 21.95 32420.150000001 711622.29249999
920	15043120 42326 603048 3985805 64.9 212.4 1476 0 3.1471939824616 1338.4904712398 2047.6762351528
921	15085446 44554 604420 3985805 65 212.4 1475 -0.31700577154775 2.5147915159356 10.464129084597 66.395934230931
922	15130000 42624 604420 3985805 65 212.4 1475 0.973 2.4378313114169 1614.293984622 1795.0848336304
936	15172624 48986 609909 3985805 65.4 212.4 1471 25.191311761067 95.589193863085 86337.597022666 5452711.934189
937	15221610 34428 609909 3985805 65.4 212.4 1471 28.05 28.05 41261.55 1157386.4775
938	15256038 50815 611305 3985805 65.5 212.4 1470 3.5126690087999e-13 1.3888454726322 1164.6016479608 1438.5716795767
939	15306853 53450 612701 3985805 65.6 212.4 1469 -0.13538644195882 0.54555627737166 12.27221502278 5.434725808369
940	15360303 48037 612701 3985805 65.6 212.4 1469 0.973 1.2081025142281 1682.8277016254 1930.4932590992
954	15408340 47444 684988 3985805 70.4 212.4 1421 2219.1381882882 2518.7631014541 3344723.6779926 7880751748.446
955	15455784 33338 684988 3985805 70.4 212.4 1421 21.95 21.95 31190.950000001 684641.35249999
956	15489122 49363 686455 3985805 70.5 212.4 1420 6.9414492098828e-13 2.7765569805837 1273.3311092564 1908.1382595126
957	15538485 51891 687922 3985805 70.6 212.4 1419 -0.31573937087371 1.9335541819399 6.2605932080304 50.181266658937
958	15590376 43150 687922 3985805 70.6 212.4 1419 0.973 2.2050188958868 1615.7017850943 1853.371943111
972	15633526 46984 693794 3985805 71 212.4 1415 2249.6446147624 2524.2138029673 3344732.140719 7913516381.8016
973	15680510 33206 693794 3985805 71 212.4 1415 21.95 21.95 31059.250000001 681750.53749999
974	15713716 49148 695286 3985805 71.1 212.4 1414 6.9761269848919e-13 1.3888675459635 1167.0179266349 1542.1380216496
975	15762864 51795 696777 3985805 71.2 212.4 1413 -0.16840616376661 1.4066146584912 10.922977675263 20.716292384771
976	15814659 44175 696777 3985805 71.2 212.4 1413 0.973 1.5486068067 1617.3961598382 1855.6586824362
990	15858834 47066 701249 3985805 71.4 212.4 1411 26.57746672386 92.222258302085 81179.931319554 4983465.7208067
991	15905900 33120 701249 3985805 71.4 212.4 1411 28.05 28.05 39578.55 1110178.3275
992	15939020 48832 702765 3985805 71.5 212.4 1410 3.5060108738392e-13 1.3895156905856 1086.0481700116 1320.8895228526
993	15987852 51316 704281 3985805 71.6 212.4 1409 -0.15793860520905 0.52092279837805 10.522645394254 5.4615974053182
994	16039168 46226 704281 3985805 71.6 212.4 1409 0.973 1.2191654636099 1610.434505703 1843.7143686848
1008	16085394 48297 710346 3985805 72 212.4 1405 2254.0241029711 2524.2443472541 3323730.5045701 7869971768.4624
1009	16133691 34393 710346 3985805 72 212.4 1405 21.95 21.95 30839.750000001 676932.51249999
1010	16168084 50214 711886 3985805 72.1 212.4 1404 6.9767525317182e-13 1.3888817012743 1148.6911404578 1503.3937640845
1011	16218298 52774 713427 3985805 72.2 212.4 1403 -0.16791216654565 0.97399502441268 12.02563667358 12.449254713124
1012	16271072 45613 713427 3985805 72.2 212.4 1403 0.973 1.3238192542762 1605.9786951837 1841.9164318892
1026	16316685 48166 716511 3985805 72.4 212.4 1401 25.193411095913 89.715588512492 77935.514486707 4636016.8169004
1027	16364851 34303 716511 3985805 72.4 212.4 1401 28.05 28.05 39298.05 1102310.3025
1028	16399154 49933 718075 3985805 72.5 212.4 1400 1.0773138712774e-12 1.3887501096241 1067.7394703384 1291.6812370902
1029	16449087 52400 719639 3985805 72.6 212.4 1399 -0.1320527486262 0.52904389559311 12.06385273163 5.1631878290935
1030	16501487 47699 719639 3985805 72.6 212.4 1399 0.973 1.2062933266458 1600.7401180675 1834.117206825
1044	16549186 46411 805266 3985805 77.8 212.4 1347 2267.1102555996 2518.8529528406 3191147.9404516 7566070184.0118
1045	16595597 33071 805266 3985805 77.8 212.4 1347 21.95 21.95 29566.650000001 648987.96749999
1046	16628668 48258 806830 3985805 77.9 212.4 1346 6.9410626131257e-13 1.3911814794079 1070.0949231692 1373.3923391428
1047	16676926 50540 808397 3985805 78 212.4 1345 -0.17461840731542 0.51564204650749 10.345884981104 8.2301016956103
1048	16727466 43939 808397 3985805 78 212.4 1345 0.973 1.2209607126414 1536.8395684327 1759.6434090587
1062	16771405 46190 814653 3985805 78.4 212.4 1341 26.580897513818 86.355011272896 73018.31835297 4216184.9071842
1063	16817595 32935 814653 3985805 78.4 212.4 1341 28.05 28.05 37615.05 1055102.1525
1064	16850530 47934 816241 3985805 78.5 212.4 1340 4.3587192264555e-12 1.3872629306943 989.11272939867 1174.669932782
1065	16898464 50178 817829 3985805 78.6 212.4 1339 -0.16915813467749 0.47406730961202 10.348101099518 5.22591635026
1066	16948642 45604 817829 3985805 78.6 212.4 1339 0.973 1.2175446455316 1528.3450775074 1747.3281050755
1080	16994246 46081 821006 3985805 78.8 212.4 1337 2276.859174837 2524.2383541721 3177099.4389646 7555590328.5769
1081	17040327 32843 821006 3985805 78.8 212.4 1337 21.95 21.95 29347.150000001 644169.94249999
1082	17073170 47907 822619 3985805 78.9 212.4 1336 6.9760426808452e-13 1.3886167655017 1051.5937336592 1340.9189354951
1083	17121077 50203 825839 3985805 79 212.4 1335 -0.15235823910085 0.5241616871715 11.878815940286 6.9958266963498
1084	17171280 43958 825839 3985805 79 212.4 1335 0.973 1.2087961361988 1525.8010167895 1747.162052823
1098	17215238 44385 911278 3985805 84.1 212.4 1284 26.616233779024 55.459764773903 60226.566176421 2872698.0536944
1099	17259623 31636 911278 3985805 84.1 212.4 1284 28.05 28.05 36016.2 1010254.41
1100	17291259 38876 912915 3985805 84.2 212.4 1283 0 5.293566355419 483.65146609133 819.76506091922
1101	17330135 39998 914551 3985805 84.3 212.4 1282 -0.16187337601477 2.5548233008239 44.96488393707 90.50278149335
1102	17370133 38903 914551 3985805 84.3 212.4 1282 0.973 3.3078869003399 1405.78757623 1608.4879862172
1116	17409036 44189 919459 3985805 84.6 212.4 1279 25.191829502285 50.276672676276 57694.6189112 2651465.2977534
1117	17453225 31521 919459 3985805 84.6 212.4 1279 28.05 28.05 35875.95 1006320.3975
1118	17484746 47636 922775 3985805 84.7 212.4 1278 3.5117625513575e-13 1.3884968724225 416.13268584015 480.78169318159
1119	17532382 49121 924459 3985805 84.8 212.4 1277 -0.13222747550402 1.3987189860769 11.409568185456 20.659967862937
1120	17581503 40780 924459 3985805 84.8 212.4 1277 0.973 1.5517295562382 1435.4097675665 1615.9765240338
1134	17622283 44154 922775 3985805 84.7 212.4 1278 2289.7945686052 2518.8600932141 3041058.0274972 7241157501.823
1135	17666437 31498 922775 3985805 84.7 212.4 1278 21.95 21.95 28052.100000001 615743.59499999
1136	17697935 45929 924459 3985805 84.8 212.4 1277 6.9411834645844e-13 1.3909752341218 973.87985482065 1220.11824889
1137	17743864 48064 926143 3985805 84.9 212.4 1276 -0.18085660739829 0.48620114428959 10.395846101611 6.5137414418356
1138	17791928 42274 926143 3985805 84.9 212.4 1276 0.973 1.2181525633376 1456.4829154714 1665.7343055632
1152	17834202 43841 939620 3985805 85.7 212.4 1268 25.195729013973 49.308515208764 56820.627309595 2594192.8195918
1153	17878043 31270 939620 3985805 85.7 212.4 1268 28.05 28.05 35567.4 997665.56999999
1154	17909313 47219 941328 3985805 85.8 212.4 1267 3.5117684804131e-13 1.3441261751363 399.99513774227 449.10907643279
1155	17956532 48742 943036 3985805 85.9 212.4 1266 -0.12576745843708 1.0048246271169 10.4319956692 11.418834818012
1156	18005274 40819 943036 3985805 85.9 212.4 1266 0.973 1.3239011616952 1422.774176973 1600.668361248
1170	18046093 43456 961821 3985805 86.9 212.4 1256 25.194419271266 48.484285865296 55931.68234851 2537478.6928064
1171	18089549 30996 961821 3985805 86.9 212.4 1256 28.05 28.05 35230.8 988223.93999999
1172	18120545 46804 963553 3985805 87 212.4 1255 3.5117651931372e-13 1.3397398758058 386.1166894183 426.71776670401
1173	18167349 48329 965285 3985805 87.1 212.4 1254 -0.11961755076961 0.67273662034166 8.5581234233918 7.8444004680239
1174	18215678 40764 965285 3985805 87.1 212.4 1254 0.973 1.2119565129892 1408.8861080573 1584.3081080628
1188	18256442 43024 984342 3985805 88.2 212.4 1243 25.196698127665 47.801995087031 55027.058751853 2481223.0369353
1189	18299466 30701 984342 3985805 88.2 212.4 1243 28.05 28.05 34866.15 977995.50749999
1190	18330167 46365 986098 3985805 88.3 212.4 1242 3.5118394219899e-13 1.3358797386442 374.41259322264 410.46524102199
1191	18376532 47831 987854 3985805 88.4 212.4 1241 -0.11724863669836 0.47189716804012 6.0146325842096 5.9434627403753
1192	18424363 40690 987854 3985805 88.4 212.4 1241 0.973 1.1989752433304 1394.5613694299 1568.2427651514
1206	18465053 42288 1026482 3985805 90.4 212.4 1221 2304.7383652661 2518.7084654347 2914232.4414021 6959405427.5531
1207	18507341 30185 1026482 3985805 90.4 212.4 1221 21.95 21.95 26800.950000001 588280.85249999
1208	18537526 44005 1028262 3985805 90.5 212.4 1220 6.9424417103634e-13 1.3929829732005 909.74645058526 1132.5529753524
1209	18581531 46002 1030042 3985805 90.6 212.4 1219 -0.1825167446766 0.30111559569743 5.5835384505927 5.1420670933702
1210	18627533 40519 1030042 3985805 90.6 212.4 1219 0.973 1.2345808443662 1387.5969933662 1582.9747318718
1224	18668052 40987 1097681 3985805 94.2 212.4 1183 26.588145318732 45.851176890783 51153.102431169 2241401.130006
1225	18709039 29281 1097681 3985805 94.2 212.4 1183 28.05 28.05 33183.149999999 930787.35749999
1226	18738320 44269 1099485 3985805 94.3 212.4 1182 3.4943395930486e-13 1.3005872836811 318.66451161383 338.91671980674
1227	18782589 45611 1101289 3985805 94.4 212.4 1181 -0.15005335718012 0.46081629405328 1.0285534564323 4.2191607878697
1228	18828200 38700 1101289 3985805 94.4 212.4 1181 0.973 1.2147374103499 1321.0019221031 1479.107087088
1242	18866900 40694 1113921 3985805 95.1 212.4 1174 25.191308338245 44.040955228183 48769.556807231 2055435.8903769
1243	18907594 29067 1113921 3985805 95.1 212.4 1174 28.05 28.05 32930.699999999 923706.13499999
1244	18936661 43919 1115773 3985805 95.2 212.4 1173 1.7443230279896e-13 1.2921063207224 311.62023720747 328.79794183441
1245	18980580 45302 1117625 3985805 95.3 212.4 1172 -0.12157758577111 0.5279429719409 1.3058272672792 4.2021491173319
1246	19025882 38867 1117625 3985805 95.3 212.4 1172 0.973 1.2010076737876 1313.9906781497 1474.1697357773
1260	19064749 40669 1113921 3985805 95.1 212.4 1174 2319.6301498131 2518.8727488152 2811860.5667922 6737847537.6025
1261	19105418 29067 1113921 3985805 95.1 212.4 1174 21.95 21.95 25769.300000001 565636.13499999
1262	19134485 42384 1115773 3985805 95.2 212.4 1173 6.940989469036e-13 1.3949080944098 847.03495980113 1040.4402486502
1263	19176869 44266 1117625 3985805 95.3 212.4 1172 -0.195005797421 0.22171749954063 5.1305990497135 5.1069036350961
1264	19221135 39294 1117625 3985805 95.3 212.4 1172 0.973 1.229635640181 1333.6418878084 1520.7214868608
1278	19260429 40512 1125034 3985805 95.7 212.4 1168 2371.1198150363 2524.2334697244 2809425.7230986 6760430587.6605
1279	19300941 28923 1125034 3985805 95.7 212.4 1168 21.95 21.95 25637.600000001 562745.31999999
1280	19329864 35408 1126910 3985805 95.8 212.4 1167 0 1.3885190283343 649.59814086908 815.08227942924
1281	19365272 36912 1128786 3985805 95.9 212.4 1166 -0.12950495872164 0.59218646304514 -2.8504860063254 4.2702154812883
1282	19402184 35896 1128786 3985805 95.9 212.4 1166 0.973 1.2076490839382 1262.6040640215 1376.9742528106
1296	19438080 40169 1145668 3985805 96.7 212.4 1158 2372.2180069794 2524.2496896542 2786980.3720056 6710290898.3387
1297	19478249 28685 1145668 3985805 96.7 212.4 1158 21.95 21.95 25418.100000001 557927.29499999
1298	19506934 42509 1147568 3985805 96.8 212.4 1157 6.9760249930371e-13 1.3886535782577 645.1007054878 805.48091646327
1299	19549443 44242 1149468 3985805 96.9 212.4 1156 -0.12431461421507 0.55440631507302 -1.7887055347873 4.332469636356
1300	19593685 36686 1149468 3985805 96.9 212.4 1156 0.973 1.2085938442901 1309.8372077421 1486.120575266
1314	19630371 39747 1168472 3985805 97.9 212.4 1146 2373.3161989226 2524.2483314052 2759463.1687933 6647299180.0318
1315	19670118 28399 1168472 3985805 97.9 212.4 1146 21.95 21.95 25154.700000001 552145.66499999
1316	19698517 42046 1172316 3985805 98 212.4 1145 6.9761041078997e-13 1.3882335146682 640.31481422982 796.09860642432
1317	19740563 43793 1174240 3985805 98.1 212.4 1144 -0.12313106116847 0.53036794797413 -1.6279216649912 4.0750772589848
1318	19784356 36668 1174240 3985805 98.1 212.4 1144 0.973 1.2044882471815 1296.8621340887 1471.9861127845
1332	19821024 39326 1195408 3985805 99.2 212.4 1133 2374.4143908657 2524.2347933393 2729397.1641657 6577821159.468
1333	19860350 28091 1195408 3985805 99.2 212.4 1133 21.95 21.95 24869.350000001 545882.23249999
1334	19888441 41565 1197356 3985805 99.3 212.4 1132 3.5118250896301e-13 1.3883082053327 635.71998273607 787.69056865946
1335	19930006 43321 1199304 3985805 99.4 212.4 1131 -0.11841149835218 0.47196085592709 -1.8297098142635 3.8755719911952
1336	19973327 36565 1199304 3985805 99.4 212.4 1131 0.973 1.2045345769425 1283.4016575915 1457.9543452154
1350	20009892 38892 1220839 3985805 100.4 212.4 1121 2375.5125828088 2524.2556603995 2701830.5898266 6514599070.3359
1351	20048784 27801 1220839 3985805 100.4 212.4 1121 21.95 21.95 24605.95 540100.60249999
1352	20076585 41082 1222833 3985805 100.5 212.4 1120 3.5118839272145e-13 1.3881628030145 631.19352687142 779.19848330656
1353	20117667 42854 1224828 3985805 100.6 212.4 1119 -0.12008726990001 0.50725924149412 -1.3909956726215 4.0244672685077
1354	20160521 36387 1224828 3985805 100.6 212.4 1119 0.973 1.2034306670334 1269.4389203705 1441.7775340837
1368	20196908 38645 1234806 3985805 101.1 212.4 1114 26.579060562207 42.318609511746 45080.084535776 1842181.3334662
1369	20235553 27628 1234806 3985805 101.1 212.4 1114 28.05 28.05 31247.699999999 876497.98499999
1370	20263181 41828 1236826 3985805 101.2 212.4 1113 1.7359942623958e-13 1.2375814593421 260.07840711488 262.74762261156
1371	20305009 43098 1238846 3985805 101.3 212.4 1112 -0.14647543836485 0.47221284859876 -1.9189064406588 3.2556621871548
1372	20348107 36825 1238846 3985805 101.3 212.4 1112 0.973 1.1985642569674 1241.2279536302 1386.8290501041
1386	20384932 38324 1257018 3985805 102.1 212.4 1104 25.193967836661 40.620999463395 42820.668912453 1678571.3051363
1387	20423256 27380 1257018 3985805 102.1 212.4 1104 28.05 28.05 30967.199999999 868629.95999999
1388	20450636 41460 1259062 3985805 102.2 212.4 1103 1.7443133444284e-13 1.2258569134612 254.80814452389 253.90095410957
1389	20492096 42690 1261106 3985805 102.3 212.4 1102 -0.11615173556053 0.52092629512378 -1.1212949149898 3.4963976603332
1390	20534786 36893 1261106 3985805 102.3 212.4 1102 0.973 1.1966196988379 1233.1166124526 1380.718957293
1404	20571679 36766 1351041 3985805 106.5 212.4 1060 2381.9132036619 2518.8097415127 2557548.7676161 6172877469.113
1405	20608445 26288 1351041 3985805 106.5 212.4 1060 21.95 21.95 23267 510710.64999999
1406	20634733 38910 1353109 3985805 106.6 212.4 1059 3.4947726345012e-13 1.3875215383844 580.69003806871 710.45368312107
1407	20673643 40482 1355177 3985805 106.7 212.4 1058 -0.14069279548799 0.46195791323445 -3.7155490652974 3.8570817835695
1408	20714125 34308 1355177 3985805 106.7 212.4 1058 0.973 1.223244699796 1195.9323531134 1354.0372734281
1422	20748433 36229 1386194 3985805 108.1 212.4 1044 26.574170616114 38.964583935834 39312.712056403 1490073.6058952
1423	20784662 25892 1386194 3985805 108.1 212.4 1044 28.05 28.05 29284.199999999 821421.80999999
1424	20810554 39323 1388286 3985805 108.2 212.4 1043 1.735737427755e-13 1.1528764495278 204.54863827079 190.33950501737
1425	20849877 40414 1390378 3985805 108.3 212.4 1042 -0.14893525501563 0.51278047285454 -2.8485476236926 3.0423865027241
1426	20890291 34885 1390378 3985805 108.3 212.4 1042 0.973 1.1968347990916 1161.7808061313 1296.4092392895
1440	20925176 34893 1471749 3985805 112 212.4 1005 2393.6987356524 2518.8727488152 2432350.9569053 5888446487.2616
1441	20960069 24898 1471749 3983353 112 212.3 1004 21.95 21.95 22037.8 483729.70999999
1442	20984967 36882 1473841 3983353 112.1 212.3 1003 3.4941852958834e-13 1.3860244725478 530.68389007154 645.40141406445
1443	21021849 38423 1475936 3983353 112.2 212.3 1002 -0.18932117534963 0.25010071243139 -7.8660076243159 2.5437821570464
1444	21060272 32648 1475936 3983353 112.2 212.3 1002 0.973 1.2204693793775 1131.6608921211 1280.0247336965
1458	21092920 34645 1484305 3983353 112.6 212.3 998 2400.1818387554 2524.244079683 2422556.687995 5882114617.7982
1459	21127565 24750 1484305 3983353 112.6 212.3 998 21.95 21.95 21906.1 480838.89499999
1460	21152315 32195 1486422 3983353 112.7 212.3 997 0 1.3835661836236 526.35751074424 633.75920243457
1461	21184510 33597 1488538 3983353 112.8 212.3 996 -0.11445418535806 0.59506484942915 -2.6593072158965 3.9979661761415
1462	21218107 31966 1488538 3983353 112.8 212.3 996 0.973 1.2059627256009 1095.0000884481 1210.2478895078
1476	21250073 34187 1513926 3983353 113.9 212.3 985 26.574170616114 35.932634502434 34591.765388827 1219045.7310334
1477	21284260 24427 1513926 3983353 113.9 212.3 985 28.05 28.05 27629.25 775000.46249999
1478	21308687 37247 1516066 3983353 114 212.3 984 1.7355776848491e-13 1.0618370130231 154.27942697039 131.6077055433
1479	21345934 38265 1518209 3983353 114.1 212.3 983 -0.15368833441411 0.28586244457354 -7.1879150627333 1.3114257119171
1480	21384199 33141 1518209 3983353 114.1 212.3 983 0.973 1.1984524370581 1094.7871464961 1219.9829108777
1494	21417340 32725 1608087 3983353 118.1 212.3 943 2406.5824596085 2518.859449716 2292138.9891767 5572681762.1735
1495	21450065 23387 1608087 3983353 118.1 212.3 943 21.95 21.95 20698.85 454339.75749999
1496	21473452 34677 1610251 3983353 118.2 212.3 942 3.4945485683369e-13 1.3759035222849 476.30899847027 562.94538175194
1497	21508129 36059 1612415 3983353 118.3 212.3 941 -0.14776131778142 0.48166991987327 -3.4367879157271 3.6711055054905
1498	21544188 30743 1612415 3983353 118.3 212.3 941 0.973 1.2152406136528 1062.5839644067 1201.5960991383
1512	21574931 32339 1634052 3983353 119.2 212.3 932 26.602577639392 32.903957053688 30230.79537784 982126.08478975
1513	21607270 23114 1634052 3983353 119.2 212.3 932 28.05 28.05 26142.6 733299.92999999
1514	21630384 35364 1636240 3983353 119.3 212.3 931 8.7386967554454e-14 0.89722194866537 103.76704988782 73.087900746579
1515	21665748 36290 1638429 3983353 119.4 212.3 930 -0.133557102862 0.17486765256157 -6.9374137875356 0.88104968569249
1516	21702038 31573 1638429 3983353 119.4 212.3 930 0.973 1.1829975663248 1034.6168615643 1151.4209563336
1530	21733611 30626 1736890 3983353 123.7 212.3 887 2418.367991599 2518.7621604671 2162787.321042 5274402873.3137
1531	21764237 21997 1736890 3983353 123.7 212.3 887 21.95 21.95 19469.65 427358.8175
1532	21786234 32634 1739102 3983353 123.8 212.3 886 3.4942293169962e-13 1.3697113356228 425.74320454053 497.76794694774
1533	21818868 33974 1741314 3983353 123.9 212.3 885 -0.15849334554763 0.21470279075306 -8.0039996328299 2.3874317850764
1534	21852842 28997 1741314 3983353 123.9 212.3 885 0.973 1.2220258614273 995.77133365378 1122.2317495678
1548	21881839 30574 1750163 3983353 124.3 212.3 881 2424.8510946796 2524.2125428683 2154381.3001924 5269141772.1584
1549	21912413 21849 1750163 3983353 124.3 212.3 881 21.95 21.95 19337.95 424468.0025
1550	21934262 32390 1752399 3983353 124.4 212.3 880 3.5117987781886e-13 1.3634751764293 421.5081843679 485.94265620435
1551	21966652 33746 1754635 3983353 124.5 212.3 879 -0.12738466360283 0.56790312636666 -2.9927232972595 3.6725792678227
1552	22000398 29371 1754635 3983353 124.5 212.3 879 0.973 1.2043739997505 994.91070623164 1127.0761038572
1566	22029769 30284 1770285 3983353 125.1 212.3 873 26.588745568211 29.875903244258 25905.312273437 769037.37387626
1567	22060053 21651 1770285 3983353 125.1 212.3 873 28.05 28.05 24487.65 686878.58249999
1568	22081704 33230 1772545 3983353 125.2 212.3 872 8.7586293572494e-14 0.62689530957674 54.085029551907 25.778233141902
1569	22114934 34065 1774805 3983353 125.3 212.3 871 -0.10227095444856 0.15834206675246 -5.0339745076304 0.47795404289502
1570	22148999 29829 1774805 3983353 125.3 212.3 871 0.973 1.1554659262148 968.79890070772 1077.6669140929
1584	22178828 30230 1774805 3983353 125.3 212.3 871 2425.9492866227 2524.2411615821 2131081.7289781 5214979677.7622
1585	22209058 21601 1774805 3983353 125.3 212.3 871 21.95 21.95 19118.45 419649.9775
1586	22230659 31997 1777090 3983353 125.4 212.3 870 3.5118579447048e-13 1.357782216707 417.00959422931 476.65333574576
1587	22262656 33336 1779378 3983353 125.5 212.3 869 -0.10986408585523 0.54627122884595 -1.8931415176897 3.8287093081171
[...]
1260	65462465 25983 7618205 10930821 325.8 400 743 1707.7386866581 1949.9962287965 1358846.6437082 2488790549.5506
1408	65488448 25835 7618205 10930821 325.8 400 743 0.973 1.2245851725518 872.23615684753 1024.711634974
1407	65514283 27936 7618205 10930821 325.8 400 743 -0.11886400659887 0.1407113855911 -0.041860172534018 1.8015314415687
1406	65542219 25964 7618205 10930821 325.8 400 743 1.377453461174 1.3921948582985 1029.3111099486 1425.9606141404
1405	65568183 18627 7618205 10930821 325.8 400 743 21.95 21.95 16308.85 357979.2575
1404	65586810 25983 7618205 10930821 325.8 400 743 1818.0010774091 2060.251147271 1440770.3395416 2797477947.6792
1444	65612793 25799 7618205 10930821 325.8 400 743 0.973 1.2336244588193 871.67189229182 1023.6117268719
1443	65638592 27867 7618205 10930821 325.8 400 743 -0.17799649190093 0.16695493689982 -0.051682739452161 2.4685411905512
1442	65666459 25972 7618205 10930821 325.8 400 743 1.3749535467231 1.3957900926283 1029.3595523945 1426.0972038663
1441	65692431 18627 7618205 10930821 325.8 400 743 21.95 21.95 16308.85 357979.2575
1440	65711058 25985 7618205 10930821 325.8 400 743 1833.1055737986 2075.3534266477 1451992.8109383 2841170973.9468
1498	65737043 25854 7618205 10930821 325.8 400 743 0.973 1.2246736547027 872.74712640788 1025.7898408908
1497	65762897 27939 7618205 10930821 325.8 400 743 -0.12786287588928 0.14100654867708 -0.046937375519682 1.7751751667514
1496	65790836 25980 7618205 10930821 325.8 400 743 1.3775448100637 1.3920359111851 1029.3384283014 1426.034979526
1495	65816816 18627 7618205 10930821 325.8 400 743 21.95 21.95 16308.85 357979.2575
1494	65835443 25971 7618205 10930821 325.8 400 743 1884.7010567793 2126.9601697126 1490330.4418859 2992990658.5941
1534	65861414 25753 7618205 10930821 325.8 400 743 0.973 1.239314251219 871.1425524931 1022.4747713576
1533	65887167 27909 7618205 10930821 325.8 400 743 -0.15022084326557 0.18372953860144 -0.04027926527248 2.3362009502778
1532	65915076 25983 7618205 10930821 325.8 400 743 1.3731236314822 1.3960923664214 1029.4848180381 1426.4446449973
1531	65941059 18627 7618205 10930821 325.8 400 743 21.95 21.95 16308.85 357979.2575
1530	65959686 25970 7618205 10930821 325.8 400 743 1899.8039468032 2142.0621629567 1501552.2435451 3038178137.1117
1606	65985656 25880 7618205 10930821 325.8 400 743 0.973 1.2188540900051 873.11658355545 1026.5936016814
1605	66011536 27925 7618205 10930821 325.8 400 743 -0.12970167192295 0.12400448066608 0.022254978001486 1.9133027781131
1604	66039461 25987 7618205 10930821 325.8 400 743 1.3775343176912 1.392203475213 1029.2743165698 1425.8584144895
1603	66065448 18627 7618205 10930821 325.8 400 743 21.95 21.95 16308.85 357979.2575
1602	66084075 25976 7618205 10930821 325.8 400 743 1927.0874030165 2169.3290529655 1521816.7081885 3120636560.0587
1642	66110051 25685 7618205 10930821 325.8 400 743 0.973 1.2357897152178 869.91990833146 1019.9346855242
1641	66135736 27897 7618205 10930821 325.8 400 743 -0.17768583563028 0.17380591016764 0.0087603317110731 2.568886986762
1640	66163633 25974 7618205 10930821 325.8 400 743 1.3740550782733 1.3953566210019 1029.1577495713 1425.5388291222
1639	66189607 18627 7618205 10930821 325.8 400 743 21.95 21.95 16308.85 357979.2575
1638	66208234 25963 7618205 10930821 325.8 400 743 1942.1911596095 2184.4345408776 1533039.0129563 3166777226.6323
1660	66234197 25564 7618205 10930821 325.8 400 743 0.973 1.245637689805 867.69436304554 1015.3109899277
1659	66259761 27848 7618205 10930821 325.8 400 743 -0.19244999560799 0.20212285829687 0.1186284036034 3.0867370653674
1658	66287609 25985 7618205 10930821 325.8 400 743 1.3732834725084 1.397952848988 1029.1189374697 1425.4328015578
1657	66313594 18627 7618205 10930821 325.8 400 743 21.95 21.95 16308.85 357979.2575
1656	66332221 25978 7618205 10930821 325.8 400 743 1957.295747058 2199.5364162579 1544261.1608432 3213256273.7789
1714	66358199 25832 7618205 10930821 325.8 400 743 0.973 1.2224976286591 872.11834670737 1024.4914990023
1713	66384031 27906 7618205 10930821 325.8 400 743 -0.13578745750471 0.13456254882283 0.023174197612703 1.9657067222403
1712	66411937 25980 7618205 10930821 325.8 400 743 1.3774785562425 1.3922616229972 1029.4213766695 1426.2656786064
1711	66437917 18627 7618205 10930821 325.8 400 743 21.95 21.95 16308.85 357979.2575
1710	66456544 25985 7618205 10930821 325.8 400 743 2031.098007493 2273.3527288275 1599102.7018314 3445271306.7397
1732	66482529 25697 7618205 10930821 325.8 400 743 0.973 1.2320801466281 870.27881661039 1020.7014238403
1731	66508226 27900 7618205 10930821 325.8 400 743 -0.15996524682168 0.16227307204028 0.15893173803454 2.5589320296634
1730	66536126 25980 7618205 10930821 325.8 400 743 1.3746618634496 1.3957922970044 1029.3405874151 1426.044618475
1729	66562106 18627 7618205 10930821 325.8 400 743 21.95 21.95 16308.85 357979.2575
1728	66580733 25976 7618205 10930821 325.8 400 743 2046.2016306171 2288.4604289553 1610325.1809715 3493747392.2698
301	66606709 15281 7616861 9068540 325.710967636185 358.96098270268 349 1.000468842588 1.001295791397 349.25093956864 349.50206969418
300	66621990 15100 7617226 9069390 325.711103636185 358.96114470268 345 1.000556108609 1.001382087973 345.29889150211 345.59805081746
299	66637090 14971 7619227 9067846 325.805590636269 358.96085970268 342 1.000357992829 1.001147000731 342.18496541325 342.3700405437
298	66652061 13304 7617888 9070084 325.711576636185 358.96166970268 304 0.050909087973 0.051641099063 15.632882460081 0.80390654708847
297	66665365 13179 7621068 9067309 325.806166636269 358.96073670268 301 0.050525833944 0.050997816555 15.271627904909 0.7748352140003
296	66678544 13181 7618570 9066620 325.805402636269 358.96040670268 301 0.050234992829 0.050247048686 15.122577794176 0.75977528370192
310	66691725 25080 7618205 10930821 325.8 400 743 0.973 1.2173292092298 872.12809211619 1024.5095925017
309	66716805 27191 7618205 10930821 325.8 400 743 -0.13017499306945 0.11891035652939 0.0047535506001341 1.9332813783953
308	66743996 25229 7618205 10930821 325.8 400 743 1.3776048431087 1.3925999031325 1029.4305795711 1426.290911426
307	66769225 17884 7618205 10930821 325.8 400 743 21.95 21.95 16308.85 357979.2575
306	66787109 25225 7618205 10930821 325.8 400 743 1252.9025107678 1495.1532370893 1020902.4197947 1406391268.4326
1750	66812334 25593 7618205 10930821 325.8 400 743 0.973 1.2315268050713 868.41515730295 1016.8186686849
1749	66837927 27848 7618205 10930821 325.8 400 743 -0.20157166241069 0.16180105363091 -0.0091701970655732 2.9024083036413
1748	66865775 25960 7618205 10930821 325.8 400 743 1.373630475622 1.3990265993522 1029.4591379226 1426.3750610346
1747	66891735 18627 7618205 10930821 325.8 400 743 21.95 21.95 16308.85 357979.2575
1746	66910362 25988 7618205 10930821 325.8 400 743 2061.3050665173 2303.5605916203 1621546.5383694 3542557582.6641
1786	66936350 25861 7618205 10930821 325.8 400 743 0.973 1.2206886157328 872.78368728019 1025.8886029959
1785	66962211 27886 7618205 10930821 325.8 400 743 -0.13315359337041 0.12920648371698 0.084467234994252 1.8826832740012
1784	66990097 25970 7618205 10930821 325.8 400 743 1.3775853143669 1.3921983645044 1029.3084205736 1425.9526144298
1783	67016067 18627 7618205 10930821 325.8 400 743 21.95 21.95 16308.85 357979.2575
1782	67034694 25995 7618205 10930821 325.8 400 743 2084.1921351725 2326.448780299 1638554.5737962 3617184646.9724
1804	67060689 25629 7618205 10930821 325.8 400 743 0.973 1.2344089129127 868.90540177141 1017.8206475776
1803	67086318 27877 7618205 10930821 325.8 400 743 -0.17689500831625 0.16926830632303 0.073503158790238 2.8134797678947
1802	67114195 25958 7618205 10930821 325.8 400 743 1.3745144819353 1.3951573929487 1029.4060489522 1426.2269488701
1801	67140153 18627 7618205 10930821 325.8 400 743 21.95 21.95 16308.85 357979.2575
1800	67158780 25970 7618205 10930821 325.8 400 743 2099.2989910644 2341.5532749541 1649776.6492496 3666850706.173
2200	67184750 25815 7618205 10930821 325.8 400 743 0.973 1.2244210860561 871.93503624489 1024.1164772075
2199	67210565 27874 7618205 10930821 325.8 400 743 -0.12663878095208 0.1404886697375 0.00029320775863487 2.112074467448
2198	67238439 25988 7618205 10930821 325.8 400 743 1.3766420406051 1.3924837799583 1029.133499961 1425.4684267977
2197	67264427 18627 7618205 10930821 325.8 400 743 21.95 21.95 16308.85 357979.2575
2196	67283054 25968 7618205 10930821 325.8 400 743 2139.7131754609 2381.935033202 1679797.8067987 3801382603.9452
2290	67309022 25854 7618205 10930821 325.8 400 743 0.973 1.2217259663462 872.43565628857 1025.1550877168
2289	67334876 27933 7618205 10930821 325.8 400 743 -0.13478767759777 0.13238423860591 -0.0053684993315905 1.9430305165646
2288	67362809 25984 7618205 10930821 325.8 400 743 1.3771895687195 1.3919898443289 1029.2066902143 1425.6708644522
2287	67388793 18627 7618205 10930821 325.8 400 743 21.95 21.95 16308.85 357979.2575
2286	67407420 25978 7618205 10930821 325.8 400 743 2162.5958512489 2404.8007250749 1696796.2707292 3878632343.4261
2326	67433398 25636 7618205 10930821 325.8 400 743 0.973 1.2399477924745 868.87450550019 1017.7360915091
2325	67459034 27834 7618205 10930821 325.8 400 743 -0.15878423588416 0.18564920069073 0.039466333442282 2.7056344087568
2324	67486868 25977 7618205 10930821 325.8 400 743 1.3735044262746 1.3950772372941 1029.1383262436 1425.4849952872
2323	67512845 18627 7618205 10930821 325.8 400 743 21.95 21.95 16308.85 357979.2575
2322	67531472 25976 7618205 10930821 325.8 400 743 2177.6992947259 2419.8968138216 1708017.6409869 3930054421.2549
2452	67557448 25193 7618205 10930821 325.8 400 743 0.973 1.2172609032274 843.70033790576 961.13530933695
2451	67582641 28302 7618205 10930821 325.8 400 743 -0.24898864345466 0.11957066541533 -13.716272431482 3.2313876186181
2450	67610943 26833 7618205 10930821 325.8 400 743 4.7066147222442e-10 1.3919204959515 672.11402992375 902.06073823255
2449	67637776 18627 7618205 10930821 325.8 400 743 21.95 21.95 16308.85 357979.2575
2448	67656403 25969 7618205 10930821 325.8 400 743 2297.2530384257 2455.7912690764 1745606.062588 4103201221.5828
2506	67682372 25100 7618205 10930821 325.8 400 743 0.973 1.2460725923413 842.44551547456 958.64289295464
2505	67707472 28228 7618205 10930821 325.8 400 743 -0.23204629163845 0.20409155480538 -13.665711177619 3.5390464039302
2504	67735700 26758 7618205 10930821 325.8 400 743 4.3046847067256e-09 1.3947202051285 685.84567621468 914.85898684122
2503	67762458 18627 7618205 10930821 325.8 400 743 21.95 21.95 16308.85 357979.2575
2502	67781085 25974 7618205 10930821 325.8 400 743 2309.0385704273 2470.8060360282 1756036.9976443 4152443049.3648
2542	67807059 23999 7618205 10930821 325.8 400 743 0.973 1.2338219314511 827.76966774585 928.15424961977
2541	67831058 26158 7618205 10930821 325.8 400 743 -0.22804633671838 0.17014670085296 -13.500501864103 3.1749424168266
2540	67857216 24724 7618205 10930821 325.8 400 743 0 1.397587729792 699.10151956759 927.06505263362
2539	67881940 18627 7618205 10930821 325.8 400 743 21.95 21.95 16308.85 357979.2575
2538	67900567 26005 7618205 10930821 325.8 400 743 2320.8251490879 2485.6995130117 1766497.5048523 4202116744.3213
409	67926572 18423 7616845 9379159 325.710967632071 365.990660702648 421 1.000468823313 1.001295783397 421.30338865441 421.60700841002
408	67944995 18413 7617210 9379540 325.711103632071 365.990783702648 421 1.000556094931 1.001382079973 421.36762849605 421.7355887223
407	67963408 18341 7619211 9378454 325.805590632104 365.990524702648 419 1.000357988309 1.001146992731 419.2279917828 419.45611967883
406	67981749 16308 7617872 9381436 325.711576632071 365.991703702648 373 0.050909079973 0.051641087683 19.18275546597 0.98653874949424
405	67998057 16759 7621052 9380732 325.806166632104 365.991152702648 383 0.050525816068 0.05099780191 19.428198446278 0.9855332790993
404	68014816 16678 7618554 9377752 325.805402632104 365.990401702648 381 0.050234988309 0.050247057355 19.141802512406 0.96170237656368
418	68031494 25120 7618205 10930821 325.8 400 743 0.973 1.2237839857782 872.59038855433 1025.4752044108
417	68056614 27183 7618205 10930821 325.8 400 743 -0.14220498838709 0.13836996024621 -0.080994045282388 1.9149974328306
416	68083797 25227 7618205 10930821 325.8 400 743 1.3777021708379 1.3921185652949 1029.310382693 1425.9582060005
415	68109024 17884 7618205 10930821 325.8 400 743 21.95 21.95 16308.85 357979.2575
414	68126908 25233 7618205 10930821 325.8 400 743 1275.7873509975 1518.0383085577 1037906.6490517 1453509021.2406
2596	68152141 25133 7618205 10930821 325.8 400 743 0.973 1.2351381396748 844.44904936649 963.04070082485
2595	68177274 28154 7618205 10930821 325.8 400 743 -0.20863799394691 0.17203146347659 -12.891847238134 3.2167752103692
2594	68205428 26639 7618205 10930821 325.8 400 743 2.834684227846e-08 1.3961255087881 710.73594564982 935.41065475129
2593	68232067 18627 7618205 10930821 325.8 400 743 21.95 21.95 16308.85 357979.2575
2592	68250694 25967 7618205 10930821 325.8 400 743 2332.6106811521 2500.2286571752 1776977.2554045 4252173273.0559
2632	68276661 25337 7618205 10930821 325.8 400 743 0.973 1.2403068771008 848.23637045952 971.18887805941
2631	68301998 28125 7618205 10930821 325.8 400 743 -0.20807003042171 0.1875154802042 -11.007410453436 3.365634023583
2630	68330123 26569 7618205 10930821 325.8 400 743 4.2214897485977e-07 1.3969227620752 717.26115904822 931.18484253886
2629	68356692 18627 7618205 10930821 325.8 400 743 21.95 21.95 16308.85 357979.2575
2628	68375319 25956 7618205 10930821 325.8 400 743 2344.3962142281 2513.5601214357 1787442.6864037 4302446121.3253
2704	68401275 24074 7778348 10930821 329.6 400 705 0.973 1.222998217763 806.54757577847 925.27452128348
2703	68425349 26621 7778348 10930821 329.6 400 705 -0.17798196245921 0.4988571921579 -3.5141234918079 4.4172758147621
2702	68451970 25210 7774288 10930821 329.5 400 706 1.7002417069086e-05 1.3915923185479 685.59229356525 867.91179525211
2701	68477180 17735 7770228 10930821 329.4 400 707 21.95 21.95 15518.65 340634.3675
2700	68494915 24729 7770228 10930821 329.4 400 707 2357.2799898007 2518.8519910319 1711032.0277789 4143071283.6725
2758	68519644 21723 8076402 10930821 336.5 400 636 0.973 1.2221793068034 728.20560137055 836.04589428657
2757	68541367 24003 8076402 10930821 336.5 400 636 -0.17428799155404 0.45508262319974 -3.6053822281956 4.0703176270986
2756	68565370 22663 8072273 10930821 336.4 400 637 0.00025647603318652 1.3902804263098 630.7400695837 788.64332146102
2755	68588033 16024 8068138 10930821 336.3 400 638 21.95 21.95 14004.1 307389.995
2754	68604057 22337 8068138 10930821 336.3 400 638 2370.1645421078 2518.8250365632 1550292.5223818 3768727149.2097
2812	68626394 19210 8381102 10930821 343.4 400 567 0.973 1.2206764646973 647.08148081171 740.99696947579
2811	68645604 21305 8381102 10930821 343.4 400 567 -0.16158034197276 0.49911695936823 -3.2970704680074 4.1389782167531
2810	68666909 20163 8376903 10930821 343.3 400 568 0.0024045844509811 1.3890323042898 576.13641576237 710.62932529452
2809	68687072 14313 8372700 10930821 343.2 400 569 21.95 21.95 12489.55 274145.6225
2808	68701385 19937 8372700 10930821 343.2 400 569 2383.0563676077 2518.8535970339 1388263.5703859 3388325924.3216
2848	68721322 16941 8689222 10930821 350.4 400 497 0.973 1.2142008568437 569.17005120571 653.79978090527
2847	68738263 18659 8689222 10930821 350.4 400 497 -0.15717391899762 0.47062797143957 -3.2551525349188 3.8262527824237
2846	68756922 17657 8684971 10930821 350.3 400 498 0.018544479032776 1.3834191740059 521.11544114599 633.19518818508
2845	68774579 12577 8680727 10930821 350.2 400 499 21.95 21.95 10953.05 240419.4475
2844	68787156 17518 8680727 10930821 350.2 400 499 2396.0035161817 2518.8397832772 1222421.2425932 2995453774.8461
2866	68804674 14974 8936792 10930821 356 400 441 0.973 1.2241400503746 503.49982572534 576.85697358489
2865	68819648 16613 8936792 10930821 356 400 441 -0.19790406472144 0.30365862541677 -7.2956665958325 2.688586883832
2864	68836261 15673 8932613 10930821 355.9 400 442 0.048501593542567 1.3805726552436 470.52686696758 568.5425330209
2863	68851934 11187 8928441 10930821 355.8 400 443 21.95 21.95 9723.85 213438.5075
2862	68863121 15574 8928441 10930821 355.8 400 443 2407.9154217907 2518.8727488152 1087939.3457874 2672391889.9968
2884	68878695 13428 9149378 10930821 360.8 400 393 0.973 1.2274291389482 449.36830759639 515.43753867103
2883	68892123 14824 9149378 10930821 360.8 400 393 -0.17169144733651 0.25649752257051 -7.1453576484917 2.4435660656865
2882	68906947 13979 9145180 10930821 360.7 400 394 0.10689236652363 1.3736873233712 419.46508423491 498.40319372588
2881	68920926 9997 9140980 10930821 360.6 400 395 21.95 21.95 8670.25 190311.9875
2880	68930923 13898 9140980 10930821 360.6 400 395 2419.9881962004 2518.8727488152 972898.00008255 2396683689.1224
2920	68944821 11324 9419644 10930821 366.9 400 332 0.973 1.2119703556426 379.92837707509 436.20404979301
2919	68956145 12524 9419644 10930821 366.9 400 332 -0.15258190453868 0.470471148487 -0.50106026346166 3.1464987393603
2918	68968669 11848 9415398 10930821 366.8 400 333 0.32779255229494 1.3450755040409 358.70640374714 413.21335880473
2917	68980517 8484 9411152 10930821 366.7 400 334 21.95 21.95 7331.3 160922.035
2916	68989001 11793 9411152 10930821 366.7 400 334 2434.3639377808 2518.8148925586 826423.98679947 2045086407.2165
2938	69000794 9505 9665526 10930821 372.4 400 277 0.973 1.2179309148626 316.82190349674 363.51866813546
2937	69010299 10484 9665526 10930821 372.4 400 277 -0.17191151431479 0.22139012745179 -3.5812175712465 1.8444972068298
2936	69020783 9926 9661280 10930821 372.3 400 278 0.44384171903042 1.3200497611245 303.11869117652 346.05736331951
2935	69030709 7121 9657031 10930821 372.2 400 279 21.95 21.95 6124.05 134422.8975
2934	69037830 9878 9657031 10930821 372.2 400 279 2447.4403443604 2518.7993051173 692122.96601198 1717108210.2346
2956	69047708 7935 9878308 10930821 377.2 400 229 0.973 1.2216421046126 262.35808505341 301.36315852278
2955	69055643 8717 9878308 10930821 377.2 400 229 -0.14535028565262 0.2363717584999 -2.8978041272892 1.4183476119312
2954	69064360 8248 9874038 10930821 377.1 400 230 0.54720611598201 1.2737784974539 246.12574750081 272.49638944801
2953	69072608 5929 9869769 10930821 377 400 231 21.95 21.95 5070.45 111296.3775
2952	69078537 8211 9869769 10930821 377 400 231 2460.7910700693 2518.6995956019 574737.25604149 1430043902.7422
2992	69086748 5967 10151939 10930821 383.2 400 169 0.973 1.195777751031 195.6237494994 226.70040978119
2991	69092715 6433 10151939 10930821 383.2 400 169 -0.12624562116912 0.47659232135014 4.5258693206847 2.1544740758685
2990	69099148 6138 10147640 10930821 383.1 400 170 0.36160546832123 1.1724971197538 172.04633561453 178.94696542897
2989	69105286 4410 10143366 10930821 383 400 171 21.95 21.95 3753.45 82388.227500001
2988	69109696 6099 10143366 10930821 383 400 171 2478.5352291863 2518.8313743459 427391.66195943 1068235355.8018
3010	69115795 3966 10408114 10930821 388.8 400 113 0.973 1.1983773330916 130.15009302665 150.13217129196
3009	69119761 4295 10408114 10930821 388.8 400 113 -0.15002463649783 0.2546084310039 1.1950454903692 0.71656134637393
3008	69124056 4117 10403696 10930821 388.7 400 114 0.74280378425937 1.0749043638619 112.54204757035 111.81085301879
3007	69128173 2966 10394864 10930821 388.6 400 115 21.95 21.95 2524.25 55407.2875
3006	69131139 4103 10394864 10930821 388.6 400 115 2492.5678422293 2518.8727488152 288181.50092272 722168867.63975
3064	69135242 1174 10782137 10930821 396.8 400 33 1.1537501425971 1.1728880327332 38.38944954092 44.659948241796
3063	69136416 1220 10782137 10930821 396.8 400 33 0.022594898740089 0.45720880568891 5.4345830885083 1.3138876322785
3062	69137636 1245 10777647 10930821 396.7 400 34 0.2705496009364 0.81400790978723 21.672521165187 14.620733026301
3061	69138881 902 10773155 10930821 396.6 400 35 21.95 21.95 768.25 16863.0875
3060	69139783 1250 10773155 10930821 396.6 400 35 2514.0083575942 2518.8626092673 88088.92725282 221704625.84744
