version 2
run WithoutChannelSwitching-0-20170222-10:34:15-32213
attr configname WithoutChannelSwitching
attr datetime 20170222-10:34:15
attr experiment WithoutChannelSwitching
attr inifile omnetpp.ini
attr iterationvars ""
attr iterationvars2 $repetition=0
attr measurement ""
attr network V2X
attr processid 32213
attr repetition 0
attr replication #0
attr resultdir results
attr runnumber 0
attr seedset 0
param **.coreDebug false
param **.dataOnSch false
param **.debug false
param **.sendBeacons true
param **.useServiceChannel false
param *.**.nic.mac1609_4.bitrate 6Mbps
param *.**.nic.mac1609_4.txPower 20mW
param *.**.nic.mac1609_4.useServiceChannel false
param *.**.nic.phy80211p.analogueModels "xmldoc(\"config.xml\")"
param *.**.nic.phy80211p.collectCollisionStatistics true
param *.**.nic.phy80211p.decider "xmldoc(\"config.xml\")"
param *.**.nic.phy80211p.sensitivity -89dBm
param *.**.nic.phy80211p.thermalNoise -110dBm
param *.**.nic.phy80211p.usePropagationDelay true
param *.**.nic.phy80211p.useThermalNoise true
param *.TMC.beaconInterval 0.1s
param *.TMC.beaconPriority 3
param *.TMC.headerLength "80  bit"
param *.TMC.sendWSA true
param *.TMC.size 2
param *.annotations.draw false
param *.connectionManager.drawMaxIntfDist false
param *.connectionManager.maxInterfDist 2600m
param *.connectionManager.sendDirect true
param *.manager.autoShutdown false
param *.manager.host "\"localhost\""
param *.manager.launchConfig "xmldoc(\"scenario.launchd.xml\")"
param *.manager.margin 25
param *.manager.moduleDisplayString "\"\""
param *.manager.moduleName "\"node\""
param *.manager.moduleType "\"project.MyCar_Model.Car_model\""
param *.manager.numVehicles 200
param *.manager.port 9999
param *.manager.updateInterval 0.1s
param *.node[*0].veinsmobility.accidentCount 1
param *.node[*0].veinsmobility.accidentDuration 50s
param *.node[*0].veinsmobility.accidentStart 75s
param *.node[*].appl.beaconInterval 1s
param *.node[*].appl.dataOnSch false
param *.node[*].appl.debug false
param *.node[*].appl.headerLength "80 bit"
param *.node[*].appl.sendBeacons true
param *.node[*].appl.sendWSA true
param *.node[*].applType "\"CAR_Apps\""
param *.node[*].mobilityType "\"TraCIMobility\""
param *.node[*].mobilityType.debug true
param *.node[*].veinsmobility.x 0
param *.node[*].veinsmobility.y 0
param *.node[*].veinsmobility.z 1.895
param *.node[*].veinsmobilityType "\"org.car2x.veins.modules.mobility.traci.TraCIMobility\""
param *.node[*].veinsmobilityType.debug true
param *.numRsu 2
param *.playgroundSizeX 2600m
param *.playgroundSizeY 2600m
param *.playgroundSizeZ 50m
param *.rsu[0].mobility.x 511
param *.rsu[0].mobility.y 511
param *.rsu[0].mobility.z 0
param *.rsu[1].mobility.x 1533
param *.rsu[1].mobility.y 511
param *.rsu[1].mobility.z 0
param *.world.use2D false
param *.world.useTorus false

scalar V2X.node[1].appl 	numReceiveDSL 	413
scalar V2X.node[1].appl 	numReceiveWI 	420
scalar V2X.node[1].appl 	numReceivePI 	417
scalar V2X.node[1].appl 	numSentHW 	0
scalar V2X.node[1].appl 	numReceiveHW_V2I 	0
scalar V2X.node[1].appl 	numReceiveHW_V2V 	0
scalar V2X.node[1].appl 	"Average throughput_HW_V2V" 	0
scalar V2X.node[1].appl 	"Average throughput_HW_V2I" 	0
scalar V2X.node[1].appl 	"Average throughput_DSL" 	3277.8720345075
scalar V2X.node[1].appl 	"Average throughput_WI" 	3333.4291876348
scalar V2X.node[1].appl 	"Average throughput_PI" 	3309.6189791517
scalar V2X.node[1].nic.phy80211p 	busyTime 	0.0027642271746946
scalar V2X.node[1].nic.phy80211p 	ncollisions 	54
scalar V2X.node[1].nic.mac1609_4 	ReceivedUnicastPackets 	0
scalar V2X.node[1].nic.mac1609_4 	ReceivedBroadcasts 	2544
scalar V2X.node[1].nic.mac1609_4 	SentPackets 	0
scalar V2X.node[1].nic.mac1609_4 	SNIRLostPackets 	54
scalar V2X.node[1].nic.mac1609_4 	RXTXLostPackets 	0
scalar V2X.node[1].nic.mac1609_4 	TotalLostPackets 	54
scalar V2X.node[1].nic.mac1609_4 	DroppedPacketsInMac 	0
scalar V2X.node[1].nic.mac1609_4 	TooLittleTime 	0
scalar V2X.node[1].nic.mac1609_4 	TimesIntoBackoff 	0
scalar V2X.node[1].nic.mac1609_4 	SlotsBackoff 	0
scalar V2X.node[1].nic.mac1609_4 	NumInternalContention 	0
scalar V2X.node[1].nic.mac1609_4 	totalBusyTime 	0.384504
scalar V2X.node[1].veinsmobility 	startTime 	0.1
scalar V2X.node[1].veinsmobility 	totalTime 	139
scalar V2X.node[1].veinsmobility 	stopTime 	139.2
scalar V2X.node[1].veinsmobility 	minSpeed 	0.46964093480811
scalar V2X.node[1].veinsmobility 	maxSpeed 	12.499980186027
scalar V2X.node[1].veinsmobility 	totalDistance 	2495.7086730004
scalar V2X.node[1].veinsmobility 	totalCO2Emission 	278.27758125396
scalar V2X.node[0].appl 	numReceiveDSL 	809
scalar V2X.node[0].appl 	numReceiveWI 	810
scalar V2X.node[0].appl 	numReceivePI 	818
scalar V2X.node[0].appl 	numSentHW 	0
scalar V2X.node[0].appl 	numReceiveHW_V2I 	0
scalar V2X.node[0].appl 	numReceiveHW_V2V 	0
scalar V2X.node[0].appl 	"Average throughput_HW_V2V" 	0
scalar V2X.node[0].appl 	"Average throughput_HW_V2I" 	0
scalar V2X.node[0].appl 	"Average throughput_DSL" 	4937.1807628524
scalar V2X.node[0].appl 	"Average throughput_WI" 	4943.2835820896
scalar V2X.node[0].appl 	"Average throughput_PI" 	4992.1061359867
scalar V2X.node[0].nic.phy80211p 	busyTime 	0.0040595688225539
scalar V2X.node[0].nic.phy80211p 	ncollisions 	48
scalar V2X.node[0].nic.mac1609_4 	ReceivedUnicastPackets 	0
scalar V2X.node[0].nic.mac1609_4 	ReceivedBroadcasts 	4914
scalar V2X.node[0].nic.mac1609_4 	SentPackets 	0
scalar V2X.node[0].nic.mac1609_4 	SNIRLostPackets 	48
scalar V2X.node[0].nic.mac1609_4 	RXTXLostPackets 	0
scalar V2X.node[0].nic.mac1609_4 	TotalLostPackets 	48
scalar V2X.node[0].nic.mac1609_4 	DroppedPacketsInMac 	0
scalar V2X.node[0].nic.mac1609_4 	TooLittleTime 	0
scalar V2X.node[0].nic.mac1609_4 	TimesIntoBackoff 	0
scalar V2X.node[0].nic.mac1609_4 	SlotsBackoff 	0
scalar V2X.node[0].nic.mac1609_4 	NumInternalContention 	0
scalar V2X.node[0].nic.mac1609_4 	totalBusyTime 	0.734376
scalar V2X.node[0].veinsmobility 	startTime 	0.1
scalar V2X.node[0].veinsmobility 	totalTime 	180.8
scalar V2X.node[0].veinsmobility 	stopTime 	181
scalar V2X.node[0].veinsmobility 	minSpeed 	0
scalar V2X.node[0].veinsmobility 	maxSpeed 	12.499964209653
scalar V2X.node[0].veinsmobility 	totalDistance 	2493.5901737717
scalar V2X.node[0].veinsmobility 	totalCO2Emission 	326.78958789036
scalar V2X.node[5].appl 	numReceiveDSL 	812
scalar V2X.node[5].appl 	numReceiveWI 	811
scalar V2X.node[5].appl 	numReceivePI 	810
scalar V2X.node[5].appl 	numSentHW 	0
scalar V2X.node[5].appl 	numReceiveHW_V2I 	0
scalar V2X.node[5].appl 	numReceiveHW_V2V 	0
scalar V2X.node[5].appl 	"Average throughput_HW_V2V" 	0
scalar V2X.node[5].appl 	"Average throughput_HW_V2I" 	0
scalar V2X.node[5].appl 	"Average throughput_DSL" 	4983.0350194553
scalar V2X.node[5].appl 	"Average throughput_WI" 	4976.8982768205
scalar V2X.node[5].appl 	"Average throughput_PI" 	4970.7615341857
scalar V2X.node[5].nic.phy80211p 	busyTime 	0.0040574541411895
scalar V2X.node[5].nic.phy80211p 	ncollisions 	36
scalar V2X.node[5].nic.mac1609_4 	ReceivedUnicastPackets 	0
scalar V2X.node[5].nic.mac1609_4 	ReceivedBroadcasts 	4896
scalar V2X.node[5].nic.mac1609_4 	SentPackets 	0
scalar V2X.node[5].nic.mac1609_4 	SNIRLostPackets 	36
scalar V2X.node[5].nic.mac1609_4 	RXTXLostPackets 	0
scalar V2X.node[5].nic.mac1609_4 	TotalLostPackets 	36
scalar V2X.node[5].nic.mac1609_4 	DroppedPacketsInMac 	0
scalar V2X.node[5].nic.mac1609_4 	TooLittleTime 	0
scalar V2X.node[5].nic.mac1609_4 	TimesIntoBackoff 	0
scalar V2X.node[5].nic.mac1609_4 	SlotsBackoff 	0
scalar V2X.node[5].nic.mac1609_4 	NumInternalContention 	0
scalar V2X.node[5].nic.mac1609_4 	totalBusyTime 	0.729936
scalar V2X.node[5].veinsmobility 	startTime 	2.4
scalar V2X.node[5].veinsmobility 	totalTime 	179.8
scalar V2X.node[5].veinsmobility 	stopTime 	182.3
scalar V2X.node[5].veinsmobility 	minSpeed 	1.6364576470825e-10
scalar V2X.node[5].veinsmobility 	maxSpeed 	12.499990740158
scalar V2X.node[5].veinsmobility 	totalDistance 	2492.7378129172
scalar V2X.node[5].veinsmobility 	totalCO2Emission 	325.53552367872
scalar V2X.TMC 	numSentDSL 	4211
scalar V2X.TMC 	numSentWI 	4211
scalar V2X.TMC 	numSentPI 	4211
scalar V2X.TMC 	numSentHWV2I 	0
scalar V2X.rsu[0].nic.phy80211p 	busyTime 	0
scalar V2X.rsu[0].nic.phy80211p 	ncollisions 	0
scalar V2X.rsu[0].nic.mac1609_4 	ReceivedUnicastPackets 	0
scalar V2X.rsu[0].nic.mac1609_4 	ReceivedBroadcasts 	0
scalar V2X.rsu[0].nic.mac1609_4 	SentPackets 	25230
scalar V2X.rsu[0].nic.mac1609_4 	SNIRLostPackets 	0
scalar V2X.rsu[0].nic.mac1609_4 	RXTXLostPackets 	0
scalar V2X.rsu[0].nic.mac1609_4 	TotalLostPackets 	0
scalar V2X.rsu[0].nic.mac1609_4 	DroppedPacketsInMac 	0
scalar V2X.rsu[0].nic.mac1609_4 	TooLittleTime 	0
scalar V2X.rsu[0].nic.mac1609_4 	TimesIntoBackoff 	33650
scalar V2X.rsu[0].nic.mac1609_4 	SlotsBackoff 	143813
scalar V2X.rsu[0].nic.mac1609_4 	NumInternalContention 	5314
scalar V2X.rsu[0].nic.mac1609_4 	totalBusyTime 	3.76179
scalar V2X.rsu[1].nic.phy80211p 	busyTime 	0
scalar V2X.rsu[1].nic.phy80211p 	ncollisions 	0
scalar V2X.rsu[1].nic.mac1609_4 	ReceivedUnicastPackets 	0
scalar V2X.rsu[1].nic.mac1609_4 	ReceivedBroadcasts 	0
scalar V2X.rsu[1].nic.mac1609_4 	SentPackets 	25230
scalar V2X.rsu[1].nic.mac1609_4 	SNIRLostPackets 	0
scalar V2X.rsu[1].nic.mac1609_4 	RXTXLostPackets 	0
scalar V2X.rsu[1].nic.mac1609_4 	TotalLostPackets 	0
scalar V2X.rsu[1].nic.mac1609_4 	DroppedPacketsInMac 	0
scalar V2X.rsu[1].nic.mac1609_4 	TooLittleTime 	0
scalar V2X.rsu[1].nic.mac1609_4 	TimesIntoBackoff 	33650
scalar V2X.rsu[1].nic.mac1609_4 	SlotsBackoff 	143560
scalar V2X.rsu[1].nic.mac1609_4 	NumInternalContention 	5261
scalar V2X.rsu[1].nic.mac1609_4 	totalBusyTime 	3.76179
scalar V2X.node[6].appl 	numReceiveDSL 	899
scalar V2X.node[6].appl 	numReceiveWI 	893
scalar V2X.node[6].appl 	numReceivePI 	892
scalar V2X.node[6].appl 	numSentHW 	0
scalar V2X.node[6].appl 	numReceiveHW_V2I 	0
scalar V2X.node[6].appl 	numReceiveHW_V2V 	0
scalar V2X.node[6].appl 	"Average throughput_HW_V2V" 	0
scalar V2X.node[6].appl 	"Average throughput_HW_V2I" 	0
scalar V2X.node[6].appl 	"Average throughput_DSL" 	2496.8452830189
scalar V2X.node[6].appl 	"Average throughput_WI" 	2480.1811320755
scalar V2X.node[6].appl 	"Average throughput_PI" 	2477.4037735849
scalar V2X.node[6].nic.phy80211p 	busyTime 	0.0021133283018867
scalar V2X.node[6].nic.phy80211p 	ncollisions 	169
scalar V2X.node[6].nic.mac1609_4 	ReceivedUnicastPackets 	0
scalar V2X.node[6].nic.mac1609_4 	ReceivedBroadcasts 	5507
scalar V2X.node[6].nic.mac1609_4 	SentPackets 	0
scalar V2X.node[6].nic.mac1609_4 	SNIRLostPackets 	169
scalar V2X.node[6].nic.mac1609_4 	RXTXLostPackets 	0
scalar V2X.node[6].nic.mac1609_4 	TotalLostPackets 	169
scalar V2X.node[6].nic.mac1609_4 	DroppedPacketsInMac 	0
scalar V2X.node[6].nic.mac1609_4 	TooLittleTime 	0
scalar V2X.node[6].nic.mac1609_4 	TimesIntoBackoff 	0
scalar V2X.node[6].nic.mac1609_4 	SlotsBackoff 	0
scalar V2X.node[6].nic.mac1609_4 	NumInternalContention 	0
scalar V2X.node[6].nic.mac1609_4 	totalBusyTime 	0.840048
scalar V2X.node[6].veinsmobility 	startTime 	2.5
scalar V2X.node[6].veinsmobility 	totalTime 	397.5
scalar V2X.node[6].veinsmobility 	stopTime 	400
scalar V2X.node[6].veinsmobility 	minSpeed 	1.3819478819561
scalar V2X.node[6].veinsmobility 	maxSpeed 	1.388885479401
scalar V2X.node[6].veinsmobility 	totalDistance 	1297.8055315197
scalar V2X.node[6].veinsmobility 	totalCO2Emission 	467.77387483051
scalar V2X.node[14].appl 	numReceiveDSL 	0
scalar V2X.node[14].appl 	numReceiveWI 	0
scalar V2X.node[14].appl 	numReceivePI 	0
scalar V2X.node[14].appl 	numSentHW 	0
scalar V2X.node[14].appl 	numReceiveHW_V2I 	0
scalar V2X.node[14].appl 	numReceiveHW_V2V 	0
scalar V2X.node[14].appl 	"Average throughput_HW_V2V" 	0
scalar V2X.node[14].appl 	"Average throughput_HW_V2I" 	0
scalar V2X.node[14].appl 	"Average throughput_DSL" 	0
scalar V2X.node[14].appl 	"Average throughput_WI" 	0
scalar V2X.node[14].appl 	"Average throughput_PI" 	0
scalar V2X.node[14].nic.phy80211p 	busyTime 	0
scalar V2X.node[14].nic.phy80211p 	ncollisions 	0
scalar V2X.node[14].nic.mac1609_4 	ReceivedUnicastPackets 	0
scalar V2X.node[14].nic.mac1609_4 	ReceivedBroadcasts 	0
scalar V2X.node[14].nic.mac1609_4 	SentPackets 	0
scalar V2X.node[14].nic.mac1609_4 	SNIRLostPackets 	0
scalar V2X.node[14].nic.mac1609_4 	RXTXLostPackets 	0
scalar V2X.node[14].nic.mac1609_4 	TotalLostPackets 	0
scalar V2X.node[14].nic.mac1609_4 	DroppedPacketsInMac 	0
scalar V2X.node[14].nic.mac1609_4 	TooLittleTime 	0
scalar V2X.node[14].nic.mac1609_4 	TimesIntoBackoff 	0
scalar V2X.node[14].nic.mac1609_4 	SlotsBackoff 	0
scalar V2X.node[14].nic.mac1609_4 	NumInternalContention 	0
scalar V2X.node[14].nic.mac1609_4 	totalBusyTime 	0
scalar V2X.node[14].veinsmobility 	startTime 	8
scalar V2X.node[14].veinsmobility 	totalTime 	392
scalar V2X.node[14].veinsmobility 	stopTime 	400
scalar V2X.node[14].veinsmobility 	minSpeed 	6.9764311247999e-13
scalar V2X.node[14].veinsmobility 	maxSpeed 	1.3888860563764
scalar V2X.node[14].veinsmobility 	totalDistance 	284.63519564656
scalar V2X.node[14].veinsmobility 	totalCO2Emission 	457.22238909389
scalar V2X.node[15].appl 	numReceiveDSL 	0
scalar V2X.node[15].appl 	numReceiveWI 	0
scalar V2X.node[15].appl 	numReceivePI 	0
scalar V2X.node[15].appl 	numSentHW 	0
scalar V2X.node[15].appl 	numReceiveHW_V2I 	0
scalar V2X.node[15].appl 	numReceiveHW_V2V 	0
scalar V2X.node[15].appl 	"Average throughput_HW_V2V" 	0
scalar V2X.node[15].appl 	"Average throughput_HW_V2I" 	0
scalar V2X.node[15].appl 	"Average throughput_DSL" 	0
scalar V2X.node[15].appl 	"Average throughput_WI" 	0
scalar V2X.node[15].appl 	"Average throughput_PI" 	0
scalar V2X.node[15].nic.phy80211p 	busyTime 	0
scalar V2X.node[15].nic.phy80211p 	ncollisions 	0
scalar V2X.node[15].nic.mac1609_4 	ReceivedUnicastPackets 	0
scalar V2X.node[15].nic.mac1609_4 	ReceivedBroadcasts 	0
scalar V2X.node[15].nic.mac1609_4 	SentPackets 	0
scalar V2X.node[15].nic.mac1609_4 	SNIRLostPackets 	0
scalar V2X.node[15].nic.mac1609_4 	RXTXLostPackets 	0
scalar V2X.node[15].nic.mac1609_4 	TotalLostPackets 	0
scalar V2X.node[15].nic.mac1609_4 	DroppedPacketsInMac 	0
scalar V2X.node[15].nic.mac1609_4 	TooLittleTime 	0
scalar V2X.node[15].nic.mac1609_4 	TimesIntoBackoff 	0
scalar V2X.node[15].nic.mac1609_4 	SlotsBackoff 	0
scalar V2X.node[15].nic.mac1609_4 	NumInternalContention 	0
scalar V2X.node[15].nic.mac1609_4 	totalBusyTime 	0
scalar V2X.node[15].veinsmobility 	startTime 	9.3
scalar V2X.node[15].veinsmobility 	totalTime 	390.7
scalar V2X.node[15].veinsmobility 	stopTime 	400
scalar V2X.node[15].veinsmobility 	minSpeed 	6.9769871359783e-13
scalar V2X.node[15].veinsmobility 	maxSpeed 	1.3888885016834
scalar V2X.node[15].veinsmobility 	totalDistance 	283.50457673761
scalar V2X.node[15].veinsmobility 	totalCO2Emission 	455.56693827616
scalar V2X.node[17].appl 	numReceiveDSL 	0
scalar V2X.node[17].appl 	numReceiveWI 	0
scalar V2X.node[17].appl 	numReceivePI 	0
scalar V2X.node[17].appl 	numSentHW 	0
scalar V2X.node[17].appl 	numReceiveHW_V2I 	0
scalar V2X.node[17].appl 	numReceiveHW_V2V 	0
scalar V2X.node[17].appl 	"Average throughput_HW_V2V" 	0
scalar V2X.node[17].appl 	"Average throughput_HW_V2I" 	0
scalar V2X.node[17].appl 	"Average throughput_DSL" 	0
scalar V2X.node[17].appl 	"Average throughput_WI" 	0
scalar V2X.node[17].appl 	"Average throughput_PI" 	0
scalar V2X.node[17].nic.phy80211p 	busyTime 	0
scalar V2X.node[17].nic.phy80211p 	ncollisions 	0
scalar V2X.node[17].nic.mac1609_4 	ReceivedUnicastPackets 	0
scalar V2X.node[17].nic.mac1609_4 	ReceivedBroadcasts 	0
scalar V2X.node[17].nic.mac1609_4 	SentPackets 	0
scalar V2X.node[17].nic.mac1609_4 	SNIRLostPackets 	0
scalar V2X.node[17].nic.mac1609_4 	RXTXLostPackets 	0
scalar V2X.node[17].nic.mac1609_4 	TotalLostPackets 	0
scalar V2X.node[17].nic.mac1609_4 	DroppedPacketsInMac 	0
scalar V2X.node[17].nic.mac1609_4 	TooLittleTime 	0
scalar V2X.node[17].nic.mac1609_4 	TimesIntoBackoff 	0
scalar V2X.node[17].nic.mac1609_4 	SlotsBackoff 	0
scalar V2X.node[17].nic.mac1609_4 	NumInternalContention 	0
scalar V2X.node[17].nic.mac1609_4 	totalBusyTime 	0
scalar V2X.node[17].veinsmobility 	startTime 	10.5
scalar V2X.node[17].veinsmobility 	totalTime 	389.5
scalar V2X.node[17].veinsmobility 	stopTime 	400
scalar V2X.node[17].veinsmobility 	minSpeed 	6.9764756120569e-13
scalar V2X.node[17].veinsmobility 	maxSpeed 	1.3888852875033
scalar V2X.node[17].veinsmobility 	totalDistance 	282.38233156867
scalar V2X.node[17].veinsmobility 	totalCO2Emission 	454.09723245125
scalar V2X.node[19].appl 	numReceiveDSL 	0
scalar V2X.node[19].appl 	numReceiveWI 	0
scalar V2X.node[19].appl 	numReceivePI 	0
scalar V2X.node[19].appl 	numSentHW 	0
scalar V2X.node[19].appl 	numReceiveHW_V2I 	0
scalar V2X.node[19].appl 	numReceiveHW_V2V 	0
scalar V2X.node[19].appl 	"Average throughput_HW_V2V" 	0
scalar V2X.node[19].appl 	"Average throughput_HW_V2I" 	0
scalar V2X.node[19].appl 	"Average throughput_DSL" 	0
scalar V2X.node[19].appl 	"Average throughput_WI" 	0
scalar V2X.node[19].appl 	"Average throughput_PI" 	0
scalar V2X.node[19].nic.phy80211p 	busyTime 	0
scalar V2X.node[19].nic.phy80211p 	ncollisions 	0
scalar V2X.node[19].nic.mac1609_4 	ReceivedUnicastPackets 	0
scalar V2X.node[19].nic.mac1609_4 	ReceivedBroadcasts 	0
scalar V2X.node[19].nic.mac1609_4 	SentPackets 	0
scalar V2X.node[19].nic.mac1609_4 	SNIRLostPackets 	0
scalar V2X.node[19].nic.mac1609_4 	RXTXLostPackets 	0
scalar V2X.node[19].nic.mac1609_4 	TotalLostPackets 	0
scalar V2X.node[19].nic.mac1609_4 	DroppedPacketsInMac 	0
scalar V2X.node[19].nic.mac1609_4 	TooLittleTime 	0
scalar V2X.node[19].nic.mac1609_4 	TimesIntoBackoff 	0
scalar V2X.node[19].nic.mac1609_4 	SlotsBackoff 	0
scalar V2X.node[19].nic.mac1609_4 	NumInternalContention 	0
scalar V2X.node[19].nic.mac1609_4 	totalBusyTime 	0
scalar V2X.node[19].veinsmobility 	startTime 	11.8
scalar V2X.node[19].veinsmobility 	totalTime 	388.2
scalar V2X.node[19].veinsmobility 	stopTime 	400
scalar V2X.node[19].veinsmobility 	minSpeed 	6.9760252577456e-13
scalar V2X.node[19].veinsmobility 	maxSpeed 	1.3888878262822
scalar V2X.node[19].veinsmobility 	totalDistance 	281.2562020489
scalar V2X.node[19].veinsmobility 	totalCO2Emission 	452.48802819208
scalar V2X.node[20].appl 	numReceiveDSL 	0
scalar V2X.node[20].appl 	numReceiveWI 	0
scalar V2X.node[20].appl 	numReceivePI 	0
scalar V2X.node[20].appl 	numSentHW 	0
scalar V2X.node[20].appl 	numReceiveHW_V2I 	0
scalar V2X.node[20].appl 	numReceiveHW_V2V 	0
scalar V2X.node[20].appl 	"Average throughput_HW_V2V" 	0
scalar V2X.node[20].appl 	"Average throughput_HW_V2I" 	0
scalar V2X.node[20].appl 	"Average throughput_DSL" 	0
scalar V2X.node[20].appl 	"Average throughput_WI" 	0
scalar V2X.node[20].appl 	"Average throughput_PI" 	0
scalar V2X.node[20].nic.phy80211p 	busyTime 	0
scalar V2X.node[20].nic.phy80211p 	ncollisions 	0
scalar V2X.node[20].nic.mac1609_4 	ReceivedUnicastPackets 	0
scalar V2X.node[20].nic.mac1609_4 	ReceivedBroadcasts 	0
scalar V2X.node[20].nic.mac1609_4 	SentPackets 	0
scalar V2X.node[20].nic.mac1609_4 	SNIRLostPackets 	0
scalar V2X.node[20].nic.mac1609_4 	RXTXLostPackets 	0
scalar V2X.node[20].nic.mac1609_4 	TotalLostPackets 	0
scalar V2X.node[20].nic.mac1609_4 	DroppedPacketsInMac 	0
scalar V2X.node[20].nic.mac1609_4 	TooLittleTime 	0
scalar V2X.node[20].nic.mac1609_4 	TimesIntoBackoff 	0
scalar V2X.node[20].nic.mac1609_4 	SlotsBackoff 	0
scalar V2X.node[20].nic.mac1609_4 	NumInternalContention 	0
scalar V2X.node[20].nic.mac1609_4 	totalBusyTime 	0
scalar V2X.node[20].veinsmobility 	startTime 	13.1
scalar V2X.node[20].veinsmobility 	totalTime 	386.9
scalar V2X.node[20].veinsmobility 	stopTime 	400
scalar V2X.node[20].veinsmobility 	minSpeed 	0
scalar V2X.node[20].veinsmobility 	maxSpeed 	1.3888848142087
scalar V2X.node[20].veinsmobility 	totalDistance 	278.06717921951
scalar V2X.node[20].veinsmobility 	totalCO2Emission 	444.26253959825
scalar V2X.node[21].appl 	numReceiveDSL 	0
scalar V2X.node[21].appl 	numReceiveWI 	0
scalar V2X.node[21].appl 	numReceivePI 	0
scalar V2X.node[21].appl 	numSentHW 	0
scalar V2X.node[21].appl 	numReceiveHW_V2I 	0
scalar V2X.node[21].appl 	numReceiveHW_V2V 	0
scalar V2X.node[21].appl 	"Average throughput_HW_V2V" 	0
scalar V2X.node[21].appl 	"Average throughput_HW_V2I" 	0
scalar V2X.node[21].appl 	"Average throughput_DSL" 	0
scalar V2X.node[21].appl 	"Average throughput_WI" 	0
scalar V2X.node[21].appl 	"Average throughput_PI" 	0
scalar V2X.node[21].nic.phy80211p 	busyTime 	0
scalar V2X.node[21].nic.phy80211p 	ncollisions 	0
scalar V2X.node[21].nic.mac1609_4 	ReceivedUnicastPackets 	0
scalar V2X.node[21].nic.mac1609_4 	ReceivedBroadcasts 	0
scalar V2X.node[21].nic.mac1609_4 	SentPackets 	0
scalar V2X.node[21].nic.mac1609_4 	SNIRLostPackets 	0
scalar V2X.node[21].nic.mac1609_4 	RXTXLostPackets 	0
scalar V2X.node[21].nic.mac1609_4 	TotalLostPackets 	0
scalar V2X.node[21].nic.mac1609_4 	DroppedPacketsInMac 	0
scalar V2X.node[21].nic.mac1609_4 	TooLittleTime 	0
scalar V2X.node[21].nic.mac1609_4 	TimesIntoBackoff 	0
scalar V2X.node[21].nic.mac1609_4 	SlotsBackoff 	0
scalar V2X.node[21].nic.mac1609_4 	NumInternalContention 	0
scalar V2X.node[21].nic.mac1609_4 	totalBusyTime 	0
scalar V2X.node[21].veinsmobility 	startTime 	14.4
scalar V2X.node[21].veinsmobility 	totalTime 	385.6
scalar V2X.node[21].veinsmobility 	stopTime 	400
scalar V2X.node[21].veinsmobility 	minSpeed 	6.9760729995827e-13
scalar V2X.node[21].veinsmobility 	maxSpeed 	1.3888856956958
scalar V2X.node[21].veinsmobility 	totalDistance 	276.93897554009
scalar V2X.node[21].veinsmobility 	totalCO2Emission 	449.37446673917
scalar V2X.node[26].appl 	numReceiveDSL 	0
scalar V2X.node[26].appl 	numReceiveWI 	0
scalar V2X.node[26].appl 	numReceivePI 	0
scalar V2X.node[26].appl 	numSentHW 	0
scalar V2X.node[26].appl 	numReceiveHW_V2I 	0
scalar V2X.node[26].appl 	numReceiveHW_V2V 	0
scalar V2X.node[26].appl 	"Average throughput_HW_V2V" 	0
scalar V2X.node[26].appl 	"Average throughput_HW_V2I" 	0
scalar V2X.node[26].appl 	"Average throughput_DSL" 	0
scalar V2X.node[26].appl 	"Average throughput_WI" 	0
scalar V2X.node[26].appl 	"Average throughput_PI" 	0
scalar V2X.node[26].nic.phy80211p 	busyTime 	0
scalar V2X.node[26].nic.phy80211p 	ncollisions 	0
scalar V2X.node[26].nic.mac1609_4 	ReceivedUnicastPackets 	0
scalar V2X.node[26].nic.mac1609_4 	ReceivedBroadcasts 	0
scalar V2X.node[26].nic.mac1609_4 	SentPackets 	0
scalar V2X.node[26].nic.mac1609_4 	SNIRLostPackets 	0
scalar V2X.node[26].nic.mac1609_4 	RXTXLostPackets 	0
scalar V2X.node[26].nic.mac1609_4 	TotalLostPackets 	0
scalar V2X.node[26].nic.mac1609_4 	DroppedPacketsInMac 	0
scalar V2X.node[26].nic.mac1609_4 	TooLittleTime 	0
scalar V2X.node[26].nic.mac1609_4 	TimesIntoBackoff 	0
scalar V2X.node[26].nic.mac1609_4 	SlotsBackoff 	0
scalar V2X.node[26].nic.mac1609_4 	NumInternalContention 	0
scalar V2X.node[26].nic.mac1609_4 	totalBusyTime 	0
scalar V2X.node[26].veinsmobility 	startTime 	21.4
scalar V2X.node[26].veinsmobility 	totalTime 	378.6
scalar V2X.node[26].veinsmobility 	stopTime 	400
scalar V2X.node[26].veinsmobility 	minSpeed 	6.976079054832e-13
scalar V2X.node[26].veinsmobility 	maxSpeed 	1.3888878608818
scalar V2X.node[26].veinsmobility 	totalDistance 	271.05314127088
scalar V2X.node[26].veinsmobility 	totalCO2Emission 	441.13630553635
scalar V2X.node[31].appl 	numReceiveDSL 	0
scalar V2X.node[31].appl 	numReceiveWI 	0
scalar V2X.node[31].appl 	numReceivePI 	0
scalar V2X.node[31].appl 	numSentHW 	0
scalar V2X.node[31].appl 	numReceiveHW_V2I 	0
scalar V2X.node[31].appl 	numReceiveHW_V2V 	0
scalar V2X.node[31].appl 	"Average throughput_HW_V2V" 	0
scalar V2X.node[31].appl 	"Average throughput_HW_V2I" 	0
scalar V2X.node[31].appl 	"Average throughput_DSL" 	0
scalar V2X.node[31].appl 	"Average throughput_WI" 	0
scalar V2X.node[31].appl 	"Average throughput_PI" 	0
scalar V2X.node[31].nic.phy80211p 	busyTime 	0
scalar V2X.node[31].nic.phy80211p 	ncollisions 	0
scalar V2X.node[31].nic.mac1609_4 	ReceivedUnicastPackets 	0
scalar V2X.node[31].nic.mac1609_4 	ReceivedBroadcasts 	0
scalar V2X.node[31].nic.mac1609_4 	SentPackets 	0
scalar V2X.node[31].nic.mac1609_4 	SNIRLostPackets 	0
scalar V2X.node[31].nic.mac1609_4 	RXTXLostPackets 	0
scalar V2X.node[31].nic.mac1609_4 	TotalLostPackets 	0
scalar V2X.node[31].nic.mac1609_4 	DroppedPacketsInMac 	0
scalar V2X.node[31].nic.mac1609_4 	TooLittleTime 	0
scalar V2X.node[31].nic.mac1609_4 	TimesIntoBackoff 	0
scalar V2X.node[31].nic.mac1609_4 	SlotsBackoff 	0
scalar V2X.node[31].nic.mac1609_4 	NumInternalContention 	0
scalar V2X.node[31].nic.mac1609_4 	totalBusyTime 	0
scalar V2X.node[31].veinsmobility 	startTime 	28.2
scalar V2X.node[31].veinsmobility 	totalTime 	371.8
scalar V2X.node[31].veinsmobility 	stopTime 	400
scalar V2X.node[31].veinsmobility 	minSpeed 	6.9761304421252e-13
scalar V2X.node[31].veinsmobility 	maxSpeed 	1.3888883576728
scalar V2X.node[31].veinsmobility 	totalDistance 	259.11277814855
scalar V2X.node[31].veinsmobility 	totalCO2Emission 	432.58109502065
scalar V2X.node[28].appl 	numReceiveDSL 	901
scalar V2X.node[28].appl 	numReceiveWI 	896
scalar V2X.node[28].appl 	numReceivePI 	891
scalar V2X.node[28].appl 	numSentHW 	0
scalar V2X.node[28].appl 	numReceiveHW_V2I 	0
scalar V2X.node[28].appl 	numReceiveHW_V2V 	0
scalar V2X.node[28].appl 	"Average throughput_HW_V2V" 	0
scalar V2X.node[28].appl 	"Average throughput_HW_V2I" 	0
scalar V2X.node[28].appl 	"Average throughput_DSL" 	2658.2148583645
scalar V2X.node[28].appl 	"Average throughput_WI" 	2643.4633885623
scalar V2X.node[28].appl 	"Average throughput_PI" 	2628.71191876
scalar V2X.node[28].nic.phy80211p 	busyTime 	0.0022449171566007
scalar V2X.node[28].nic.phy80211p 	ncollisions 	159
scalar V2X.node[28].nic.mac1609_4 	ReceivedUnicastPackets 	0
scalar V2X.node[28].nic.mac1609_4 	ReceivedBroadcasts 	5517
scalar V2X.node[28].nic.mac1609_4 	SentPackets 	0
scalar V2X.node[28].nic.mac1609_4 	SNIRLostPackets 	159
scalar V2X.node[28].nic.mac1609_4 	RXTXLostPackets 	0
scalar V2X.node[28].nic.mac1609_4 	TotalLostPackets 	159
scalar V2X.node[28].nic.mac1609_4 	DroppedPacketsInMac 	0
scalar V2X.node[28].nic.mac1609_4 	TooLittleTime 	0
scalar V2X.node[28].nic.mac1609_4 	TimesIntoBackoff 	0
scalar V2X.node[28].nic.mac1609_4 	SlotsBackoff 	0
scalar V2X.node[28].nic.mac1609_4 	NumInternalContention 	0
scalar V2X.node[28].nic.mac1609_4 	totalBusyTime 	0.840048
scalar V2X.node[28].veinsmobility 	startTime 	25.8
scalar V2X.node[28].veinsmobility 	totalTime 	374.2
scalar V2X.node[28].veinsmobility 	stopTime 	400
scalar V2X.node[28].veinsmobility 	minSpeed 	0.16396248136884
scalar V2X.node[28].veinsmobility 	maxSpeed 	1.388886084371
scalar V2X.node[28].veinsmobility 	totalDistance 	1211.7519270376
scalar V2X.node[28].veinsmobility 	totalCO2Emission 	440.38417530343
scalar V2X.node[37].appl 	numReceiveDSL 	0
scalar V2X.node[37].appl 	numReceiveWI 	0
scalar V2X.node[37].appl 	numReceivePI 	0
scalar V2X.node[37].appl 	numSentHW 	0
scalar V2X.node[37].appl 	numReceiveHW_V2I 	0
scalar V2X.node[37].appl 	numReceiveHW_V2V 	0
scalar V2X.node[37].appl 	"Average throughput_HW_V2V" 	0
scalar V2X.node[37].appl 	"Average throughput_HW_V2I" 	0
scalar V2X.node[37].appl 	"Average throughput_DSL" 	0
scalar V2X.node[37].appl 	"Average throughput_WI" 	0
scalar V2X.node[37].appl 	"Average throughput_PI" 	0
scalar V2X.node[37].nic.phy80211p 	busyTime 	0
scalar V2X.node[37].nic.phy80211p 	ncollisions 	0
scalar V2X.node[37].nic.mac1609_4 	ReceivedUnicastPackets 	0
scalar V2X.node[37].nic.mac1609_4 	ReceivedBroadcasts 	0
scalar V2X.node[37].nic.mac1609_4 	SentPackets 	0
scalar V2X.node[37].nic.mac1609_4 	SNIRLostPackets 	0
scalar V2X.node[37].nic.mac1609_4 	RXTXLostPackets 	0
scalar V2X.node[37].nic.mac1609_4 	TotalLostPackets 	0
scalar V2X.node[37].nic.mac1609_4 	DroppedPacketsInMac 	0
scalar V2X.node[37].nic.mac1609_4 	TooLittleTime 	0
scalar V2X.node[37].nic.mac1609_4 	TimesIntoBackoff 	0
scalar V2X.node[37].nic.mac1609_4 	SlotsBackoff 	0
scalar V2X.node[37].nic.mac1609_4 	NumInternalContention 	0
scalar V2X.node[37].nic.mac1609_4 	totalBusyTime 	0
scalar V2X.node[37].veinsmobility 	startTime 	40.4
scalar V2X.node[37].veinsmobility 	totalTime 	359.6
scalar V2X.node[37].veinsmobility 	stopTime 	400
scalar V2X.node[37].veinsmobility 	minSpeed 	6.9761495502362e-13
scalar V2X.node[37].veinsmobility 	maxSpeed 	1.3888794940172
scalar V2X.node[37].veinsmobility 	totalDistance 	249.34588304068
scalar V2X.node[37].veinsmobility 	totalCO2Emission 	418.38393578342
scalar V2X.node[43].appl 	numReceiveDSL 	0
scalar V2X.node[43].appl 	numReceiveWI 	0
scalar V2X.node[43].appl 	numReceivePI 	0
scalar V2X.node[43].appl 	numSentHW 	0
scalar V2X.node[43].appl 	numReceiveHW_V2I 	0
scalar V2X.node[43].appl 	numReceiveHW_V2V 	0
scalar V2X.node[43].appl 	"Average throughput_HW_V2V" 	0
scalar V2X.node[43].appl 	"Average throughput_HW_V2I" 	0
scalar V2X.node[43].appl 	"Average throughput_DSL" 	0
scalar V2X.node[43].appl 	"Average throughput_WI" 	0
scalar V2X.node[43].appl 	"Average throughput_PI" 	0
scalar V2X.node[43].nic.phy80211p 	busyTime 	0
scalar V2X.node[43].nic.phy80211p 	ncollisions 	0
scalar V2X.node[43].nic.mac1609_4 	ReceivedUnicastPackets 	0
scalar V2X.node[43].nic.mac1609_4 	ReceivedBroadcasts 	0
scalar V2X.node[43].nic.mac1609_4 	SentPackets 	0
scalar V2X.node[43].nic.mac1609_4 	SNIRLostPackets 	0
scalar V2X.node[43].nic.mac1609_4 	RXTXLostPackets 	0
scalar V2X.node[43].nic.mac1609_4 	TotalLostPackets 	0
scalar V2X.node[43].nic.mac1609_4 	DroppedPacketsInMac 	0
scalar V2X.node[43].nic.mac1609_4 	TooLittleTime 	0
scalar V2X.node[43].nic.mac1609_4 	TimesIntoBackoff 	0
scalar V2X.node[43].nic.mac1609_4 	SlotsBackoff 	0
scalar V2X.node[43].nic.mac1609_4 	NumInternalContention 	0
scalar V2X.node[43].nic.mac1609_4 	totalBusyTime 	0
scalar V2X.node[43].veinsmobility 	startTime 	52.1
scalar V2X.node[43].veinsmobility 	totalTime 	347.9
scalar V2X.node[43].veinsmobility 	stopTime 	400
scalar V2X.node[43].veinsmobility 	minSpeed 	6.9760887453921e-13
scalar V2X.node[43].veinsmobility 	maxSpeed 	1.3888881477598
scalar V2X.node[43].veinsmobility 	totalDistance 	239.57802435083
scalar V2X.node[43].veinsmobility 	totalCO2Emission 	404.74858276012
scalar V2X.node[47].appl 	numReceiveDSL 	0
scalar V2X.node[47].appl 	numReceiveWI 	0
scalar V2X.node[47].appl 	numReceivePI 	0
scalar V2X.node[47].appl 	numSentHW 	0
scalar V2X.node[47].appl 	numReceiveHW_V2I 	0
scalar V2X.node[47].appl 	numReceiveHW_V2V 	0
scalar V2X.node[47].appl 	"Average throughput_HW_V2V" 	0
scalar V2X.node[47].appl 	"Average throughput_HW_V2I" 	0
scalar V2X.node[47].appl 	"Average throughput_DSL" 	0
scalar V2X.node[47].appl 	"Average throughput_WI" 	0
scalar V2X.node[47].appl 	"Average throughput_PI" 	0
scalar V2X.node[47].nic.phy80211p 	busyTime 	0
scalar V2X.node[47].nic.phy80211p 	ncollisions 	0
scalar V2X.node[47].nic.mac1609_4 	ReceivedUnicastPackets 	0
scalar V2X.node[47].nic.mac1609_4 	ReceivedBroadcasts 	0
scalar V2X.node[47].nic.mac1609_4 	SentPackets 	0
scalar V2X.node[47].nic.mac1609_4 	SNIRLostPackets 	0
scalar V2X.node[47].nic.mac1609_4 	RXTXLostPackets 	0
scalar V2X.node[47].nic.mac1609_4 	TotalLostPackets 	0
scalar V2X.node[47].nic.mac1609_4 	DroppedPacketsInMac 	0
scalar V2X.node[47].nic.mac1609_4 	TooLittleTime 	0
scalar V2X.node[47].nic.mac1609_4 	TimesIntoBackoff 	0
scalar V2X.node[47].nic.mac1609_4 	SlotsBackoff 	0
scalar V2X.node[47].nic.mac1609_4 	NumInternalContention 	0
scalar V2X.node[47].nic.mac1609_4 	totalBusyTime 	0
scalar V2X.node[47].veinsmobility 	startTime 	58.5
scalar V2X.node[47].veinsmobility 	totalTime 	341.5
scalar V2X.node[47].veinsmobility 	stopTime 	400
scalar V2X.node[47].veinsmobility 	minSpeed 	3.5117766777899e-13
scalar V2X.node[47].veinsmobility 	maxSpeed 	1.3888874756263
scalar V2X.node[47].veinsmobility 	totalDistance 	233.70905369254
scalar V2X.node[47].veinsmobility 	totalCO2Emission 	397.23677784869
scalar V2X.node[51].appl 	numReceiveDSL 	0
scalar V2X.node[51].appl 	numReceiveWI 	0
scalar V2X.node[51].appl 	numReceivePI 	0
scalar V2X.node[51].appl 	numSentHW 	0
scalar V2X.node[51].appl 	numReceiveHW_V2I 	0
scalar V2X.node[51].appl 	numReceiveHW_V2V 	0
scalar V2X.node[51].appl 	"Average throughput_HW_V2V" 	0
scalar V2X.node[51].appl 	"Average throughput_HW_V2I" 	0
scalar V2X.node[51].appl 	"Average throughput_DSL" 	0
scalar V2X.node[51].appl 	"Average throughput_WI" 	0
scalar V2X.node[51].appl 	"Average throughput_PI" 	0
scalar V2X.node[51].nic.phy80211p 	busyTime 	0
scalar V2X.node[51].nic.phy80211p 	ncollisions 	0
scalar V2X.node[51].nic.mac1609_4 	ReceivedUnicastPackets 	0
scalar V2X.node[51].nic.mac1609_4 	ReceivedBroadcasts 	0
scalar V2X.node[51].nic.mac1609_4 	SentPackets 	0
scalar V2X.node[51].nic.mac1609_4 	SNIRLostPackets 	0
scalar V2X.node[51].nic.mac1609_4 	RXTXLostPackets 	0
scalar V2X.node[51].nic.mac1609_4 	TotalLostPackets 	0
scalar V2X.node[51].nic.mac1609_4 	DroppedPacketsInMac 	0
scalar V2X.node[51].nic.mac1609_4 	TooLittleTime 	0
scalar V2X.node[51].nic.mac1609_4 	TimesIntoBackoff 	0
scalar V2X.node[51].nic.mac1609_4 	SlotsBackoff 	0
scalar V2X.node[51].nic.mac1609_4 	NumInternalContention 	0
scalar V2X.node[51].nic.mac1609_4 	totalBusyTime 	0
scalar V2X.node[51].veinsmobility 	startTime 	65.4
scalar V2X.node[51].veinsmobility 	totalTime 	334.6
scalar V2X.node[51].veinsmobility 	stopTime 	400
scalar V2X.node[51].veinsmobility 	minSpeed 	3.5126690087999e-13
scalar V2X.node[51].veinsmobility 	maxSpeed 	1.388887759096
scalar V2X.node[51].veinsmobility 	totalDistance 	227.82984790743
scalar V2X.node[51].veinsmobility 	totalCO2Emission 	389.10563799893
scalar V2X.node[29].appl 	numReceiveDSL 	883
scalar V2X.node[29].appl 	numReceiveWI 	900
scalar V2X.node[29].appl 	numReceivePI 	886
scalar V2X.node[29].appl 	numSentHW 	0
scalar V2X.node[29].appl 	numReceiveHW_V2I 	0
scalar V2X.node[29].appl 	numReceiveHW_V2V 	0
scalar V2X.node[29].appl 	"Average throughput_HW_V2V" 	0
scalar V2X.node[29].appl 	"Average throughput_HW_V2I" 	0
scalar V2X.node[29].appl 	"Average throughput_DSL" 	2614.1914722446
scalar V2X.node[29].appl 	"Average throughput_WI" 	2664.5213193886
scalar V2X.node[29].appl 	"Average throughput_PI" 	2623.0732099759
scalar V2X.node[29].nic.phy80211p 	busyTime 	0.0022479806918744
scalar V2X.node[29].nic.phy80211p 	ncollisions 	179
scalar V2X.node[29].nic.mac1609_4 	ReceivedUnicastPackets 	0
scalar V2X.node[29].nic.mac1609_4 	ReceivedBroadcasts 	5485
scalar V2X.node[29].nic.mac1609_4 	SentPackets 	0
scalar V2X.node[29].nic.mac1609_4 	SNIRLostPackets 	179
scalar V2X.node[29].nic.mac1609_4 	RXTXLostPackets 	0
scalar V2X.node[29].nic.mac1609_4 	TotalLostPackets 	179
scalar V2X.node[29].nic.mac1609_4 	DroppedPacketsInMac 	0
scalar V2X.node[29].nic.mac1609_4 	TooLittleTime 	0
scalar V2X.node[29].nic.mac1609_4 	TimesIntoBackoff 	0
scalar V2X.node[29].nic.mac1609_4 	SlotsBackoff 	0
scalar V2X.node[29].nic.mac1609_4 	NumInternalContention 	0
scalar V2X.node[29].nic.mac1609_4 	totalBusyTime 	0.838272
scalar V2X.node[29].veinsmobility 	startTime 	27.1
scalar V2X.node[29].veinsmobility 	totalTime 	372.9
scalar V2X.node[29].veinsmobility 	stopTime 	400
scalar V2X.node[29].veinsmobility 	minSpeed 	0.17784956155552
scalar V2X.node[29].veinsmobility 	maxSpeed 	1.3888879771758
scalar V2X.node[29].veinsmobility 	totalDistance 	1207.3530255378
scalar V2X.node[29].veinsmobility 	totalCO2Emission 	438.84768274874
scalar V2X.node[56].appl 	numReceiveDSL 	0
scalar V2X.node[56].appl 	numReceiveWI 	0
scalar V2X.node[56].appl 	numReceivePI 	0
scalar V2X.node[56].appl 	numSentHW 	0
scalar V2X.node[56].appl 	numReceiveHW_V2I 	0
scalar V2X.node[56].appl 	numReceiveHW_V2V 	0
scalar V2X.node[56].appl 	"Average throughput_HW_V2V" 	0
scalar V2X.node[56].appl 	"Average throughput_HW_V2I" 	0
scalar V2X.node[56].appl 	"Average throughput_DSL" 	0
scalar V2X.node[56].appl 	"Average throughput_WI" 	0
scalar V2X.node[56].appl 	"Average throughput_PI" 	0
scalar V2X.node[56].nic.phy80211p 	busyTime 	0
scalar V2X.node[56].nic.phy80211p 	ncollisions 	0
scalar V2X.node[56].nic.mac1609_4 	ReceivedUnicastPackets 	0
scalar V2X.node[56].nic.mac1609_4 	ReceivedBroadcasts 	0
scalar V2X.node[56].nic.mac1609_4 	SentPackets 	0
scalar V2X.node[56].nic.mac1609_4 	SNIRLostPackets 	0
scalar V2X.node[56].nic.mac1609_4 	RXTXLostPackets 	0
scalar V2X.node[56].nic.mac1609_4 	TotalLostPackets 	0
scalar V2X.node[56].nic.mac1609_4 	DroppedPacketsInMac 	0
scalar V2X.node[56].nic.mac1609_4 	TooLittleTime 	0
scalar V2X.node[56].nic.mac1609_4 	TimesIntoBackoff 	0
scalar V2X.node[56].nic.mac1609_4 	SlotsBackoff 	0
scalar V2X.node[56].nic.mac1609_4 	NumInternalContention 	0
scalar V2X.node[56].nic.mac1609_4 	totalBusyTime 	0
scalar V2X.node[56].veinsmobility 	startTime 	72.4
scalar V2X.node[56].veinsmobility 	totalTime 	327.6
scalar V2X.node[56].veinsmobility 	stopTime 	400
scalar V2X.node[56].veinsmobility 	minSpeed 	1.0773138712774e-12
scalar V2X.node[56].veinsmobility 	maxSpeed 	1.3888801878283
scalar V2X.node[56].veinsmobility 	totalDistance 	221.94704911393
scalar V2X.node[56].veinsmobility 	totalCO2Emission 	380.89694850101
scalar V2X.node[61].appl 	numReceiveDSL 	0
scalar V2X.node[61].appl 	numReceiveWI 	0
scalar V2X.node[61].appl 	numReceivePI 	0
scalar V2X.node[61].appl 	numSentHW 	0
scalar V2X.node[61].appl 	numReceiveHW_V2I 	0
scalar V2X.node[61].appl 	numReceiveHW_V2V 	0
scalar V2X.node[61].appl 	"Average throughput_HW_V2V" 	0
scalar V2X.node[61].appl 	"Average throughput_HW_V2I" 	0
scalar V2X.node[61].appl 	"Average throughput_DSL" 	0
scalar V2X.node[61].appl 	"Average throughput_WI" 	0
scalar V2X.node[61].appl 	"Average throughput_PI" 	0
scalar V2X.node[61].nic.phy80211p 	busyTime 	0
scalar V2X.node[61].nic.phy80211p 	ncollisions 	0
scalar V2X.node[61].nic.mac1609_4 	ReceivedUnicastPackets 	0
scalar V2X.node[61].nic.mac1609_4 	ReceivedBroadcasts 	0
scalar V2X.node[61].nic.mac1609_4 	SentPackets 	0
scalar V2X.node[61].nic.mac1609_4 	SNIRLostPackets 	0
scalar V2X.node[61].nic.mac1609_4 	RXTXLostPackets 	0
scalar V2X.node[61].nic.mac1609_4 	TotalLostPackets 	0
scalar V2X.node[61].nic.mac1609_4 	DroppedPacketsInMac 	0
scalar V2X.node[61].nic.mac1609_4 	TooLittleTime 	0
scalar V2X.node[61].nic.mac1609_4 	TimesIntoBackoff 	0
scalar V2X.node[61].nic.mac1609_4 	SlotsBackoff 	0
scalar V2X.node[61].nic.mac1609_4 	NumInternalContention 	0
scalar V2X.node[61].nic.mac1609_4 	totalBusyTime 	0
scalar V2X.node[61].veinsmobility 	startTime 	84.6
scalar V2X.node[61].veinsmobility 	totalTime 	315.4
scalar V2X.node[61].veinsmobility 	stopTime 	400
scalar V2X.node[61].veinsmobility 	minSpeed 	3.5117625513575e-13
scalar V2X.node[61].veinsmobility 	maxSpeed 	1.3888848361239
scalar V2X.node[61].veinsmobility 	totalDistance 	182.52613201933
scalar V2X.node[61].veinsmobility 	totalCO2Emission 	364.36235082069
scalar V2X.node[63].appl 	numReceiveDSL 	0
scalar V2X.node[63].appl 	numReceiveWI 	0
scalar V2X.node[63].appl 	numReceivePI 	0
scalar V2X.node[63].appl 	numSentHW 	0
scalar V2X.node[63].appl 	numReceiveHW_V2I 	0
scalar V2X.node[63].appl 	numReceiveHW_V2V 	0
scalar V2X.node[63].appl 	"Average throughput_HW_V2V" 	0
scalar V2X.node[63].appl 	"Average throughput_HW_V2I" 	0
scalar V2X.node[63].appl 	"Average throughput_DSL" 	0
scalar V2X.node[63].appl 	"Average throughput_WI" 	0
scalar V2X.node[63].appl 	"Average throughput_PI" 	0
scalar V2X.node[63].nic.phy80211p 	busyTime 	0
scalar V2X.node[63].nic.phy80211p 	ncollisions 	0
scalar V2X.node[63].nic.mac1609_4 	ReceivedUnicastPackets 	0
scalar V2X.node[63].nic.mac1609_4 	ReceivedBroadcasts 	0
scalar V2X.node[63].nic.mac1609_4 	SentPackets 	0
scalar V2X.node[63].nic.mac1609_4 	SNIRLostPackets 	0
scalar V2X.node[63].nic.mac1609_4 	RXTXLostPackets 	0
scalar V2X.node[63].nic.mac1609_4 	TotalLostPackets 	0
scalar V2X.node[63].nic.mac1609_4 	DroppedPacketsInMac 	0
scalar V2X.node[63].nic.mac1609_4 	TooLittleTime 	0
scalar V2X.node[63].nic.mac1609_4 	TimesIntoBackoff 	0
scalar V2X.node[63].nic.mac1609_4 	SlotsBackoff 	0
scalar V2X.node[63].nic.mac1609_4 	NumInternalContention 	0
scalar V2X.node[63].nic.mac1609_4 	totalBusyTime 	0
scalar V2X.node[63].veinsmobility 	startTime 	85.7
scalar V2X.node[63].veinsmobility 	totalTime 	314.3
scalar V2X.node[63].veinsmobility 	stopTime 	400
scalar V2X.node[63].veinsmobility 	minSpeed 	3.5117684804131e-13
scalar V2X.node[63].veinsmobility 	maxSpeed 	1.3888886244596
scalar V2X.node[63].veinsmobility 	totalDistance 	181.39581943902
scalar V2X.node[63].veinsmobility 	totalCO2Emission 	363.13483170025
scalar V2X.node[64].appl 	numReceiveDSL 	0
scalar V2X.node[64].appl 	numReceiveWI 	0
scalar V2X.node[64].appl 	numReceivePI 	0
scalar V2X.node[64].appl 	numSentHW 	0
scalar V2X.node[64].appl 	numReceiveHW_V2I 	0
scalar V2X.node[64].appl 	numReceiveHW_V2V 	0
scalar V2X.node[64].appl 	"Average throughput_HW_V2V" 	0
scalar V2X.node[64].appl 	"Average throughput_HW_V2I" 	0
scalar V2X.node[64].appl 	"Average throughput_DSL" 	0
scalar V2X.node[64].appl 	"Average throughput_WI" 	0
scalar V2X.node[64].appl 	"Average throughput_PI" 	0
scalar V2X.node[64].nic.phy80211p 	busyTime 	0
scalar V2X.node[64].nic.phy80211p 	ncollisions 	0
scalar V2X.node[64].nic.mac1609_4 	ReceivedUnicastPackets 	0
scalar V2X.node[64].nic.mac1609_4 	ReceivedBroadcasts 	0
scalar V2X.node[64].nic.mac1609_4 	SentPackets 	0
scalar V2X.node[64].nic.mac1609_4 	SNIRLostPackets 	0
scalar V2X.node[64].nic.mac1609_4 	RXTXLostPackets 	0
scalar V2X.node[64].nic.mac1609_4 	TotalLostPackets 	0
scalar V2X.node[64].nic.mac1609_4 	DroppedPacketsInMac 	0
scalar V2X.node[64].nic.mac1609_4 	TooLittleTime 	0
scalar V2X.node[64].nic.mac1609_4 	TimesIntoBackoff 	0
scalar V2X.node[64].nic.mac1609_4 	SlotsBackoff 	0
scalar V2X.node[64].nic.mac1609_4 	NumInternalContention 	0
scalar V2X.node[64].nic.mac1609_4 	totalBusyTime 	0
scalar V2X.node[64].veinsmobility 	startTime 	86.9
scalar V2X.node[64].veinsmobility 	totalTime 	313.1
scalar V2X.node[64].veinsmobility 	stopTime 	400
scalar V2X.node[64].veinsmobility 	minSpeed 	3.5117651931372e-13
scalar V2X.node[64].veinsmobility 	maxSpeed 	1.3888870274952
scalar V2X.node[64].veinsmobility 	totalDistance 	180.27156283041
scalar V2X.node[64].veinsmobility 	totalCO2Emission 	361.77997599715
scalar V2X.node[65].appl 	numReceiveDSL 	0
scalar V2X.node[65].appl 	numReceiveWI 	0
scalar V2X.node[65].appl 	numReceivePI 	0
scalar V2X.node[65].appl 	numSentHW 	0
scalar V2X.node[65].appl 	numReceiveHW_V2I 	0
scalar V2X.node[65].appl 	numReceiveHW_V2V 	0
scalar V2X.node[65].appl 	"Average throughput_HW_V2V" 	0
scalar V2X.node[65].appl 	"Average throughput_HW_V2I" 	0
scalar V2X.node[65].appl 	"Average throughput_DSL" 	0
scalar V2X.node[65].appl 	"Average throughput_WI" 	0
scalar V2X.node[65].appl 	"Average throughput_PI" 	0
scalar V2X.node[65].nic.phy80211p 	busyTime 	0
scalar V2X.node[65].nic.phy80211p 	ncollisions 	0
scalar V2X.node[65].nic.mac1609_4 	ReceivedUnicastPackets 	0
scalar V2X.node[65].nic.mac1609_4 	ReceivedBroadcasts 	0
scalar V2X.node[65].nic.mac1609_4 	SentPackets 	0
scalar V2X.node[65].nic.mac1609_4 	SNIRLostPackets 	0
scalar V2X.node[65].nic.mac1609_4 	RXTXLostPackets 	0
scalar V2X.node[65].nic.mac1609_4 	TotalLostPackets 	0
scalar V2X.node[65].nic.mac1609_4 	DroppedPacketsInMac 	0
scalar V2X.node[65].nic.mac1609_4 	TooLittleTime 	0
scalar V2X.node[65].nic.mac1609_4 	TimesIntoBackoff 	0
scalar V2X.node[65].nic.mac1609_4 	SlotsBackoff 	0
scalar V2X.node[65].nic.mac1609_4 	NumInternalContention 	0
scalar V2X.node[65].nic.mac1609_4 	totalBusyTime 	0
scalar V2X.node[65].veinsmobility 	startTime 	88.2
scalar V2X.node[65].veinsmobility 	totalTime 	311.8
scalar V2X.node[65].veinsmobility 	stopTime 	400
scalar V2X.node[65].veinsmobility 	minSpeed 	3.5118394219899e-13
scalar V2X.node[65].veinsmobility 	maxSpeed 	1.3888807727942
scalar V2X.node[65].veinsmobility 	totalDistance 	179.14351223649
scalar V2X.node[65].veinsmobility 	totalCO2Emission 	360.36798408829
scalar V2X.node[68].appl 	numReceiveDSL 	0
scalar V2X.node[68].appl 	numReceiveWI 	0
scalar V2X.node[68].appl 	numReceivePI 	0
scalar V2X.node[68].appl 	numSentHW 	0
scalar V2X.node[68].appl 	numReceiveHW_V2I 	0
scalar V2X.node[68].appl 	numReceiveHW_V2V 	0
scalar V2X.node[68].appl 	"Average throughput_HW_V2V" 	0
scalar V2X.node[68].appl 	"Average throughput_HW_V2I" 	0
scalar V2X.node[68].appl 	"Average throughput_DSL" 	0
scalar V2X.node[68].appl 	"Average throughput_WI" 	0
scalar V2X.node[68].appl 	"Average throughput_PI" 	0
scalar V2X.node[68].nic.phy80211p 	busyTime 	0
scalar V2X.node[68].nic.phy80211p 	ncollisions 	0
scalar V2X.node[68].nic.mac1609_4 	ReceivedUnicastPackets 	0
scalar V2X.node[68].nic.mac1609_4 	ReceivedBroadcasts 	0
scalar V2X.node[68].nic.mac1609_4 	SentPackets 	0
scalar V2X.node[68].nic.mac1609_4 	SNIRLostPackets 	0
scalar V2X.node[68].nic.mac1609_4 	RXTXLostPackets 	0
scalar V2X.node[68].nic.mac1609_4 	TotalLostPackets 	0
scalar V2X.node[68].nic.mac1609_4 	DroppedPacketsInMac 	0
scalar V2X.node[68].nic.mac1609_4 	TooLittleTime 	0
scalar V2X.node[68].nic.mac1609_4 	TimesIntoBackoff 	0
scalar V2X.node[68].nic.mac1609_4 	SlotsBackoff 	0
scalar V2X.node[68].nic.mac1609_4 	NumInternalContention 	0
scalar V2X.node[68].nic.mac1609_4 	totalBusyTime 	0
scalar V2X.node[68].veinsmobility 	startTime 	95.1
scalar V2X.node[68].veinsmobility 	totalTime 	304.9
scalar V2X.node[68].veinsmobility 	stopTime 	400
scalar V2X.node[68].veinsmobility 	minSpeed 	1.7443230279896e-13
scalar V2X.node[68].veinsmobility 	maxSpeed 	1.3888886836972
scalar V2X.node[68].veinsmobility 	totalDistance 	173.27021603314
scalar V2X.node[68].veinsmobility 	totalCO2Emission 	352.21071840883
scalar V2X.node[76].appl 	numReceiveDSL 	0
scalar V2X.node[76].appl 	numReceiveWI 	0
scalar V2X.node[76].appl 	numReceivePI 	0
scalar V2X.node[76].appl 	numSentHW 	0
scalar V2X.node[76].appl 	numReceiveHW_V2I 	0
scalar V2X.node[76].appl 	numReceiveHW_V2V 	0
scalar V2X.node[76].appl 	"Average throughput_HW_V2V" 	0
scalar V2X.node[76].appl 	"Average throughput_HW_V2I" 	0
scalar V2X.node[76].appl 	"Average throughput_DSL" 	0
scalar V2X.node[76].appl 	"Average throughput_WI" 	0
scalar V2X.node[76].appl 	"Average throughput_PI" 	0
scalar V2X.node[76].nic.phy80211p 	busyTime 	0
scalar V2X.node[76].nic.phy80211p 	ncollisions 	0
scalar V2X.node[76].nic.mac1609_4 	ReceivedUnicastPackets 	0
scalar V2X.node[76].nic.mac1609_4 	ReceivedBroadcasts 	0
scalar V2X.node[76].nic.mac1609_4 	SentPackets 	0
scalar V2X.node[76].nic.mac1609_4 	SNIRLostPackets 	0
scalar V2X.node[76].nic.mac1609_4 	RXTXLostPackets 	0
scalar V2X.node[76].nic.mac1609_4 	TotalLostPackets 	0
scalar V2X.node[76].nic.mac1609_4 	DroppedPacketsInMac 	0
scalar V2X.node[76].nic.mac1609_4 	TooLittleTime 	0
scalar V2X.node[76].nic.mac1609_4 	TimesIntoBackoff 	0
scalar V2X.node[76].nic.mac1609_4 	SlotsBackoff 	0
scalar V2X.node[76].nic.mac1609_4 	NumInternalContention 	0
scalar V2X.node[76].nic.mac1609_4 	totalBusyTime 	0
scalar V2X.node[76].veinsmobility 	startTime 	102.1
scalar V2X.node[76].veinsmobility 	totalTime 	297.9
scalar V2X.node[76].veinsmobility 	stopTime 	400
scalar V2X.node[76].veinsmobility 	minSpeed 	1.7443133444284e-13
scalar V2X.node[76].veinsmobility 	maxSpeed 	1.3888686322397
scalar V2X.node[76].veinsmobility 	totalDistance 	167.38753438279
scalar V2X.node[76].veinsmobility 	totalCO2Emission 	343.93526840188
scalar V2X.node[107].appl 	numReceiveDSL 	0
scalar V2X.node[107].appl 	numReceiveWI 	0
scalar V2X.node[107].appl 	numReceivePI 	0
scalar V2X.node[107].appl 	numSentHW 	0
scalar V2X.node[107].appl 	numReceiveHW_V2I 	0
scalar V2X.node[107].appl 	numReceiveHW_V2V 	0
scalar V2X.node[107].appl 	"Average throughput_HW_V2V" 	0
scalar V2X.node[107].appl 	"Average throughput_HW_V2I" 	0
scalar V2X.node[107].appl 	"Average throughput_DSL" 	0
scalar V2X.node[107].appl 	"Average throughput_WI" 	0
scalar V2X.node[107].appl 	"Average throughput_PI" 	0
scalar V2X.node[107].nic.phy80211p 	busyTime 	0
scalar V2X.node[107].nic.phy80211p 	ncollisions 	0
scalar V2X.node[107].nic.mac1609_4 	ReceivedUnicastPackets 	0
scalar V2X.node[107].nic.mac1609_4 	ReceivedBroadcasts 	0
scalar V2X.node[107].nic.mac1609_4 	SentPackets 	0
scalar V2X.node[107].nic.mac1609_4 	SNIRLostPackets 	0
scalar V2X.node[107].nic.mac1609_4 	RXTXLostPackets 	0
scalar V2X.node[107].nic.mac1609_4 	TotalLostPackets 	0
scalar V2X.node[107].nic.mac1609_4 	DroppedPacketsInMac 	0
scalar V2X.node[107].nic.mac1609_4 	TooLittleTime 	0
scalar V2X.node[107].nic.mac1609_4 	TimesIntoBackoff 	0
scalar V2X.node[107].nic.mac1609_4 	SlotsBackoff 	0
scalar V2X.node[107].nic.mac1609_4 	NumInternalContention 	0
scalar V2X.node[107].nic.mac1609_4 	totalBusyTime 	0
scalar V2X.node[107].veinsmobility 	startTime 	256
scalar V2X.node[107].veinsmobility 	totalTime 	144
scalar V2X.node[107].veinsmobility 	stopTime 	400
scalar V2X.node[107].veinsmobility 	minSpeed 	6.9766669944652e-13
scalar V2X.node[107].veinsmobility 	maxSpeed 	1.3888604513583
scalar V2X.node[107].veinsmobility 	totalDistance 	82.310479731061
scalar V2X.node[107].veinsmobility 	totalCO2Emission 	165.87019482542
scalar V2X.node[108].appl 	numReceiveDSL 	0
scalar V2X.node[108].appl 	numReceiveWI 	0
scalar V2X.node[108].appl 	numReceivePI 	0
scalar V2X.node[108].appl 	numSentHW 	0
scalar V2X.node[108].appl 	numReceiveHW_V2I 	0
scalar V2X.node[108].appl 	numReceiveHW_V2V 	0
scalar V2X.node[108].appl 	"Average throughput_HW_V2V" 	0
scalar V2X.node[108].appl 	"Average throughput_HW_V2I" 	0
scalar V2X.node[108].appl 	"Average throughput_DSL" 	0
scalar V2X.node[108].appl 	"Average throughput_WI" 	0
scalar V2X.node[108].appl 	"Average throughput_PI" 	0
scalar V2X.node[108].nic.phy80211p 	busyTime 	0
scalar V2X.node[108].nic.phy80211p 	ncollisions 	0
scalar V2X.node[108].nic.mac1609_4 	ReceivedUnicastPackets 	0
scalar V2X.node[108].nic.mac1609_4 	ReceivedBroadcasts 	0
scalar V2X.node[108].nic.mac1609_4 	SentPackets 	0
scalar V2X.node[108].nic.mac1609_4 	SNIRLostPackets 	0
scalar V2X.node[108].nic.mac1609_4 	RXTXLostPackets 	0
scalar V2X.node[108].nic.mac1609_4 	TotalLostPackets 	0
scalar V2X.node[108].nic.mac1609_4 	DroppedPacketsInMac 	0
scalar V2X.node[108].nic.mac1609_4 	TooLittleTime 	0
scalar V2X.node[108].nic.mac1609_4 	TimesIntoBackoff 	0
scalar V2X.node[108].nic.mac1609_4 	SlotsBackoff 	0
scalar V2X.node[108].nic.mac1609_4 	NumInternalContention 	0
scalar V2X.node[108].nic.mac1609_4 	totalBusyTime 	0
scalar V2X.node[108].veinsmobility 	startTime 	257
scalar V2X.node[108].veinsmobility 	totalTime 	143
scalar V2X.node[108].veinsmobility 	stopTime 	400
scalar V2X.node[108].veinsmobility 	minSpeed 	6.9869655475912e-13
scalar V2X.node[108].veinsmobility 	maxSpeed 	1.3888590452811
scalar V2X.node[108].veinsmobility 	totalDistance 	81.186159112326
scalar V2X.node[108].veinsmobility 	totalCO2Emission 	164.82279735699
scalar V2X.node[109].appl 	numReceiveDSL 	0
scalar V2X.node[109].appl 	numReceiveWI 	0
scalar V2X.node[109].appl 	numReceivePI 	0
scalar V2X.node[109].appl 	numSentHW 	0
scalar V2X.node[109].appl 	numReceiveHW_V2I 	0
scalar V2X.node[109].appl 	numReceiveHW_V2V 	0
scalar V2X.node[109].appl 	"Average throughput_HW_V2V" 	0
scalar V2X.node[109].appl 	"Average throughput_HW_V2I" 	0
scalar V2X.node[109].appl 	"Average throughput_DSL" 	0
scalar V2X.node[109].appl 	"Average throughput_WI" 	0
scalar V2X.node[109].appl 	"Average throughput_PI" 	0
scalar V2X.node[109].nic.phy80211p 	busyTime 	0
scalar V2X.node[109].nic.phy80211p 	ncollisions 	0
scalar V2X.node[109].nic.mac1609_4 	ReceivedUnicastPackets 	0
scalar V2X.node[109].nic.mac1609_4 	ReceivedBroadcasts 	0
scalar V2X.node[109].nic.mac1609_4 	SentPackets 	0
scalar V2X.node[109].nic.mac1609_4 	SNIRLostPackets 	0
scalar V2X.node[109].nic.mac1609_4 	RXTXLostPackets 	0
scalar V2X.node[109].nic.mac1609_4 	TotalLostPackets 	0
scalar V2X.node[109].nic.mac1609_4 	DroppedPacketsInMac 	0
scalar V2X.node[109].nic.mac1609_4 	TooLittleTime 	0
scalar V2X.node[109].nic.mac1609_4 	TimesIntoBackoff 	0
scalar V2X.node[109].nic.mac1609_4 	SlotsBackoff 	0
scalar V2X.node[109].nic.mac1609_4 	NumInternalContention 	0
scalar V2X.node[109].nic.mac1609_4 	totalBusyTime 	0
scalar V2X.node[109].veinsmobility 	startTime 	258.2
scalar V2X.node[109].veinsmobility 	totalTime 	141.8
scalar V2X.node[109].veinsmobility 	stopTime 	400
scalar V2X.node[109].veinsmobility 	minSpeed 	3.4594638406895e-12
scalar V2X.node[109].veinsmobility 	maxSpeed 	1.3888678061873
scalar V2X.node[109].veinsmobility 	totalDistance 	80.059973836166
scalar V2X.node[109].veinsmobility 	totalCO2Emission 	163.37713904155
scalar V2X.node[110].appl 	numReceiveDSL 	0
scalar V2X.node[110].appl 	numReceiveWI 	0
scalar V2X.node[110].appl 	numReceivePI 	0
scalar V2X.node[110].appl 	numSentHW 	0
scalar V2X.node[110].appl 	numReceiveHW_V2I 	0
scalar V2X.node[110].appl 	numReceiveHW_V2V 	0
scalar V2X.node[110].appl 	"Average throughput_HW_V2V" 	0
scalar V2X.node[110].appl 	"Average throughput_HW_V2I" 	0
scalar V2X.node[110].appl 	"Average throughput_DSL" 	0
scalar V2X.node[110].appl 	"Average throughput_WI" 	0
scalar V2X.node[110].appl 	"Average throughput_PI" 	0
scalar V2X.node[110].nic.phy80211p 	busyTime 	0
scalar V2X.node[110].nic.phy80211p 	ncollisions 	0
scalar V2X.node[110].nic.mac1609_4 	ReceivedUnicastPackets 	0
scalar V2X.node[110].nic.mac1609_4 	ReceivedBroadcasts 	0
scalar V2X.node[110].nic.mac1609_4 	SentPackets 	0
scalar V2X.node[110].nic.mac1609_4 	SNIRLostPackets 	0
scalar V2X.node[110].nic.mac1609_4 	RXTXLostPackets 	0
scalar V2X.node[110].nic.mac1609_4 	TotalLostPackets 	0
scalar V2X.node[110].nic.mac1609_4 	DroppedPacketsInMac 	0
scalar V2X.node[110].nic.mac1609_4 	TooLittleTime 	0
scalar V2X.node[110].nic.mac1609_4 	TimesIntoBackoff 	0
scalar V2X.node[110].nic.mac1609_4 	SlotsBackoff 	0
scalar V2X.node[110].nic.mac1609_4 	NumInternalContention 	0
scalar V2X.node[110].nic.mac1609_4 	totalBusyTime 	0
scalar V2X.node[110].veinsmobility 	startTime 	259.5
scalar V2X.node[110].veinsmobility 	totalTime 	140.5
scalar V2X.node[110].veinsmobility 	stopTime 	400
scalar V2X.node[110].veinsmobility 	minSpeed 	0
scalar V2X.node[110].veinsmobility 	maxSpeed 	1.3888469310736
scalar V2X.node[110].veinsmobility 	totalDistance 	54.140185507868
scalar V2X.node[110].veinsmobility 	totalCO2Emission 	153.04351799384
scalar V2X.node[113].appl 	numReceiveDSL 	0
scalar V2X.node[113].appl 	numReceiveWI 	0
scalar V2X.node[113].appl 	numReceivePI 	0
scalar V2X.node[113].appl 	numSentHW 	0
scalar V2X.node[113].appl 	numReceiveHW_V2I 	0
scalar V2X.node[113].appl 	numReceiveHW_V2V 	0
scalar V2X.node[113].appl 	"Average throughput_HW_V2V" 	0
scalar V2X.node[113].appl 	"Average throughput_HW_V2I" 	0
scalar V2X.node[113].appl 	"Average throughput_DSL" 	0
scalar V2X.node[113].appl 	"Average throughput_WI" 	0
scalar V2X.node[113].appl 	"Average throughput_PI" 	0
scalar V2X.node[113].nic.phy80211p 	busyTime 	0
scalar V2X.node[113].nic.phy80211p 	ncollisions 	0
scalar V2X.node[113].nic.mac1609_4 	ReceivedUnicastPackets 	0
scalar V2X.node[113].nic.mac1609_4 	ReceivedBroadcasts 	0
scalar V2X.node[113].nic.mac1609_4 	SentPackets 	0
scalar V2X.node[113].nic.mac1609_4 	SNIRLostPackets 	0
scalar V2X.node[113].nic.mac1609_4 	RXTXLostPackets 	0
scalar V2X.node[113].nic.mac1609_4 	TotalLostPackets 	0
scalar V2X.node[113].nic.mac1609_4 	DroppedPacketsInMac 	0
scalar V2X.node[113].nic.mac1609_4 	TooLittleTime 	0
scalar V2X.node[113].nic.mac1609_4 	TimesIntoBackoff 	0
scalar V2X.node[113].nic.mac1609_4 	SlotsBackoff 	0
scalar V2X.node[113].nic.mac1609_4 	NumInternalContention 	0
scalar V2X.node[113].nic.mac1609_4 	totalBusyTime 	0
scalar V2X.node[113].veinsmobility 	startTime 	266.4
scalar V2X.node[113].veinsmobility 	totalTime 	133.6
scalar V2X.node[113].veinsmobility 	stopTime 	400
scalar V2X.node[113].veinsmobility 	minSpeed 	3.5117684019274e-13
scalar V2X.node[113].veinsmobility 	maxSpeed 	1.3886253110282
scalar V2X.node[113].veinsmobility 	totalDistance 	48.30179741635
scalar V2X.node[113].veinsmobility 	totalCO2Emission 	151.76201054223
scalar V2X.node[35].appl 	numReceiveDSL 	903
scalar V2X.node[35].appl 	numReceiveWI 	894
scalar V2X.node[35].appl 	numReceivePI 	898
scalar V2X.node[35].appl 	numSentHW 	0
scalar V2X.node[35].appl 	numReceiveHW_V2I 	0
scalar V2X.node[35].appl 	numReceiveHW_V2V 	0
scalar V2X.node[35].appl 	"Average throughput_HW_V2V" 	0
scalar V2X.node[35].appl 	"Average throughput_HW_V2I" 	0
scalar V2X.node[35].appl 	"Average throughput_DSL" 	2763.8258940948
scalar V2X.node[35].appl 	"Average throughput_WI" 	2736.2794566121
scalar V2X.node[35].appl 	"Average throughput_PI" 	2748.5223177156
scalar V2X.node[35].nic.phy80211p 	busyTime 	0.0023264762960909
scalar V2X.node[35].nic.phy80211p 	ncollisions 	151
scalar V2X.node[35].nic.mac1609_4 	ReceivedUnicastPackets 	0
scalar V2X.node[35].nic.mac1609_4 	ReceivedBroadcasts 	5519
scalar V2X.node[35].nic.mac1609_4 	SentPackets 	0
scalar V2X.node[35].nic.mac1609_4 	SNIRLostPackets 	151
scalar V2X.node[35].nic.mac1609_4 	RXTXLostPackets 	0
scalar V2X.node[35].nic.mac1609_4 	TotalLostPackets 	151
scalar V2X.node[35].nic.mac1609_4 	DroppedPacketsInMac 	0
scalar V2X.node[35].nic.mac1609_4 	TooLittleTime 	0
scalar V2X.node[35].nic.mac1609_4 	TimesIntoBackoff 	0
scalar V2X.node[35].nic.mac1609_4 	SlotsBackoff 	0
scalar V2X.node[35].nic.mac1609_4 	NumInternalContention 	0
scalar V2X.node[35].nic.mac1609_4 	totalBusyTime 	0.83916
scalar V2X.node[35].veinsmobility 	startTime 	39.3
scalar V2X.node[35].veinsmobility 	totalTime 	360.7
scalar V2X.node[35].veinsmobility 	stopTime 	400
scalar V2X.node[35].veinsmobility 	minSpeed 	0.24617918360332
scalar V2X.node[35].veinsmobility 	maxSpeed 	1.3888828299904
scalar V2X.node[35].veinsmobility 	totalDistance 	1169.3750575212
scalar V2X.node[35].veinsmobility 	totalCO2Emission 	424.50611880118
scalar V2X.node[119].appl 	numReceiveDSL 	0
scalar V2X.node[119].appl 	numReceiveWI 	0
scalar V2X.node[119].appl 	numReceivePI 	0
scalar V2X.node[119].appl 	numSentHW 	0
scalar V2X.node[119].appl 	numReceiveHW_V2I 	0
scalar V2X.node[119].appl 	numReceiveHW_V2V 	0
scalar V2X.node[119].appl 	"Average throughput_HW_V2V" 	0
scalar V2X.node[119].appl 	"Average throughput_HW_V2I" 	0
scalar V2X.node[119].appl 	"Average throughput_DSL" 	0
scalar V2X.node[119].appl 	"Average throughput_WI" 	0
scalar V2X.node[119].appl 	"Average throughput_PI" 	0
scalar V2X.node[119].nic.phy80211p 	busyTime 	0
scalar V2X.node[119].nic.phy80211p 	ncollisions 	0
scalar V2X.node[119].nic.mac1609_4 	ReceivedUnicastPackets 	0
scalar V2X.node[119].nic.mac1609_4 	ReceivedBroadcasts 	0
scalar V2X.node[119].nic.mac1609_4 	SentPackets 	0
scalar V2X.node[119].nic.mac1609_4 	SNIRLostPackets 	0
scalar V2X.node[119].nic.mac1609_4 	RXTXLostPackets 	0
scalar V2X.node[119].nic.mac1609_4 	TotalLostPackets 	0
scalar V2X.node[119].nic.mac1609_4 	DroppedPacketsInMac 	0
scalar V2X.node[119].nic.mac1609_4 	TooLittleTime 	0
scalar V2X.node[119].nic.mac1609_4 	TimesIntoBackoff 	0
scalar V2X.node[119].nic.mac1609_4 	SlotsBackoff 	0
scalar V2X.node[119].nic.mac1609_4 	NumInternalContention 	0
scalar V2X.node[119].nic.mac1609_4 	totalBusyTime 	0
scalar V2X.node[119].veinsmobility 	startTime 	273.3
scalar V2X.node[119].veinsmobility 	totalTime 	126.7
scalar V2X.node[119].veinsmobility 	stopTime 	400
scalar V2X.node[119].veinsmobility 	minSpeed 	3.5118012093979e-13
scalar V2X.node[119].veinsmobility 	maxSpeed 	1.3882628892299
scalar V2X.node[119].veinsmobility 	totalDistance 	42.619168272043
scalar V2X.node[119].veinsmobility 	totalCO2Emission 	143.55301815808
scalar V2X.node[124].appl 	numReceiveDSL 	0
scalar V2X.node[124].appl 	numReceiveWI 	0
scalar V2X.node[124].appl 	numReceivePI 	0
scalar V2X.node[124].appl 	numSentHW 	0
scalar V2X.node[124].appl 	numReceiveHW_V2I 	0
scalar V2X.node[124].appl 	numReceiveHW_V2V 	0
scalar V2X.node[124].appl 	"Average throughput_HW_V2V" 	0
scalar V2X.node[124].appl 	"Average throughput_HW_V2I" 	0
scalar V2X.node[124].appl 	"Average throughput_DSL" 	0
scalar V2X.node[124].appl 	"Average throughput_WI" 	0
scalar V2X.node[124].appl 	"Average throughput_PI" 	0
scalar V2X.node[124].nic.phy80211p 	busyTime 	0
scalar V2X.node[124].nic.phy80211p 	ncollisions 	0
scalar V2X.node[124].nic.mac1609_4 	ReceivedUnicastPackets 	0
scalar V2X.node[124].nic.mac1609_4 	ReceivedBroadcasts 	0
scalar V2X.node[124].nic.mac1609_4 	SentPackets 	0
scalar V2X.node[124].nic.mac1609_4 	SNIRLostPackets 	0
scalar V2X.node[124].nic.mac1609_4 	RXTXLostPackets 	0
scalar V2X.node[124].nic.mac1609_4 	TotalLostPackets 	0
scalar V2X.node[124].nic.mac1609_4 	DroppedPacketsInMac 	0
scalar V2X.node[124].nic.mac1609_4 	TooLittleTime 	0
scalar V2X.node[124].nic.mac1609_4 	TimesIntoBackoff 	0
scalar V2X.node[124].nic.mac1609_4 	SlotsBackoff 	0
scalar V2X.node[124].nic.mac1609_4 	NumInternalContention 	0
scalar V2X.node[124].nic.mac1609_4 	totalBusyTime 	0
scalar V2X.node[124].veinsmobility 	startTime 	285.5
scalar V2X.node[124].veinsmobility 	totalTime 	114.5
scalar V2X.node[124].veinsmobility 	stopTime 	400
scalar V2X.node[124].veinsmobility 	minSpeed 	3.5118927643393e-13
scalar V2X.node[124].veinsmobility 	maxSpeed 	1.3789157118176
scalar V2X.node[124].veinsmobility 	totalDistance 	28.515898388256
scalar V2X.node[124].veinsmobility 	totalCO2Emission 	128.95411572017
scalar V2X.node[125].appl 	numReceiveDSL 	0
scalar V2X.node[125].appl 	numReceiveWI 	0
scalar V2X.node[125].appl 	numReceivePI 	0
scalar V2X.node[125].appl 	numSentHW 	0
scalar V2X.node[125].appl 	numReceiveHW_V2I 	0
scalar V2X.node[125].appl 	numReceiveHW_V2V 	0
scalar V2X.node[125].appl 	"Average throughput_HW_V2V" 	0
scalar V2X.node[125].appl 	"Average throughput_HW_V2I" 	0
scalar V2X.node[125].appl 	"Average throughput_DSL" 	0
scalar V2X.node[125].appl 	"Average throughput_WI" 	0
scalar V2X.node[125].appl 	"Average throughput_PI" 	0
scalar V2X.node[125].nic.phy80211p 	busyTime 	0
scalar V2X.node[125].nic.phy80211p 	ncollisions 	0
scalar V2X.node[125].nic.mac1609_4 	ReceivedUnicastPackets 	0
scalar V2X.node[125].nic.mac1609_4 	ReceivedBroadcasts 	0
scalar V2X.node[125].nic.mac1609_4 	SentPackets 	0
scalar V2X.node[125].nic.mac1609_4 	SNIRLostPackets 	0
scalar V2X.node[125].nic.mac1609_4 	RXTXLostPackets 	0
scalar V2X.node[125].nic.mac1609_4 	TotalLostPackets 	0
scalar V2X.node[125].nic.mac1609_4 	DroppedPacketsInMac 	0
scalar V2X.node[125].nic.mac1609_4 	TooLittleTime 	0
scalar V2X.node[125].nic.mac1609_4 	TimesIntoBackoff 	0
scalar V2X.node[125].nic.mac1609_4 	SlotsBackoff 	0
scalar V2X.node[125].nic.mac1609_4 	NumInternalContention 	0
scalar V2X.node[125].nic.mac1609_4 	totalBusyTime 	0
scalar V2X.node[125].veinsmobility 	startTime 	286.5
scalar V2X.node[125].veinsmobility 	totalTime 	113.5
scalar V2X.node[125].veinsmobility 	stopTime 	400
scalar V2X.node[125].veinsmobility 	minSpeed 	3.5117792685715e-13
scalar V2X.node[125].veinsmobility 	maxSpeed 	1.3765757697433
scalar V2X.node[125].veinsmobility 	totalDistance 	28.238374991942
scalar V2X.node[125].veinsmobility 	totalCO2Emission 	127.90361670166
scalar V2X.node[127].appl 	numReceiveDSL 	0
scalar V2X.node[127].appl 	numReceiveWI 	0
scalar V2X.node[127].appl 	numReceivePI 	0
scalar V2X.node[127].appl 	numSentHW 	0
scalar V2X.node[127].appl 	numReceiveHW_V2I 	0
scalar V2X.node[127].appl 	numReceiveHW_V2V 	0
scalar V2X.node[127].appl 	"Average throughput_HW_V2V" 	0
scalar V2X.node[127].appl 	"Average throughput_HW_V2I" 	0
scalar V2X.node[127].appl 	"Average throughput_DSL" 	0
scalar V2X.node[127].appl 	"Average throughput_WI" 	0
scalar V2X.node[127].appl 	"Average throughput_PI" 	0
scalar V2X.node[127].nic.phy80211p 	busyTime 	0
scalar V2X.node[127].nic.phy80211p 	ncollisions 	0
scalar V2X.node[127].nic.mac1609_4 	ReceivedUnicastPackets 	0
scalar V2X.node[127].nic.mac1609_4 	ReceivedBroadcasts 	0
scalar V2X.node[127].nic.mac1609_4 	SentPackets 	0
scalar V2X.node[127].nic.mac1609_4 	SNIRLostPackets 	0
scalar V2X.node[127].nic.mac1609_4 	RXTXLostPackets 	0
scalar V2X.node[127].nic.mac1609_4 	TotalLostPackets 	0
scalar V2X.node[127].nic.mac1609_4 	DroppedPacketsInMac 	0
scalar V2X.node[127].nic.mac1609_4 	TooLittleTime 	0
scalar V2X.node[127].nic.mac1609_4 	TimesIntoBackoff 	0
scalar V2X.node[127].nic.mac1609_4 	SlotsBackoff 	0
scalar V2X.node[127].nic.mac1609_4 	NumInternalContention 	0
scalar V2X.node[127].nic.mac1609_4 	totalBusyTime 	0
scalar V2X.node[127].veinsmobility 	startTime 	287.8
scalar V2X.node[127].veinsmobility 	totalTime 	112.2
scalar V2X.node[127].veinsmobility 	stopTime 	400
scalar V2X.node[127].veinsmobility 	minSpeed 	3.5118204729119e-13
scalar V2X.node[127].veinsmobility 	maxSpeed 	1.3748732667506
scalar V2X.node[127].veinsmobility 	totalDistance 	27.950175974746
scalar V2X.node[127].veinsmobility 	totalCO2Emission 	126.49728113706
scalar V2X.node[137].appl 	numReceiveDSL 	0
scalar V2X.node[137].appl 	numReceiveWI 	0
scalar V2X.node[137].appl 	numReceivePI 	0
scalar V2X.node[137].appl 	numSentHW 	0
scalar V2X.node[137].appl 	numReceiveHW_V2I 	0
scalar V2X.node[137].appl 	numReceiveHW_V2V 	0
scalar V2X.node[137].appl 	"Average throughput_HW_V2V" 	0
scalar V2X.node[137].appl 	"Average throughput_HW_V2I" 	0
scalar V2X.node[137].appl 	"Average throughput_DSL" 	0
scalar V2X.node[137].appl 	"Average throughput_WI" 	0
scalar V2X.node[137].appl 	"Average throughput_PI" 	0
scalar V2X.node[137].nic.phy80211p 	busyTime 	0
scalar V2X.node[137].nic.phy80211p 	ncollisions 	0
scalar V2X.node[137].nic.mac1609_4 	ReceivedUnicastPackets 	0
scalar V2X.node[137].nic.mac1609_4 	ReceivedBroadcasts 	0
scalar V2X.node[137].nic.mac1609_4 	SentPackets 	0
scalar V2X.node[137].nic.mac1609_4 	SNIRLostPackets 	0
scalar V2X.node[137].nic.mac1609_4 	RXTXLostPackets 	0
scalar V2X.node[137].nic.mac1609_4 	TotalLostPackets 	0
scalar V2X.node[137].nic.mac1609_4 	DroppedPacketsInMac 	0
scalar V2X.node[137].nic.mac1609_4 	TooLittleTime 	0
scalar V2X.node[137].nic.mac1609_4 	TimesIntoBackoff 	0
scalar V2X.node[137].nic.mac1609_4 	SlotsBackoff 	0
scalar V2X.node[137].nic.mac1609_4 	NumInternalContention 	0
scalar V2X.node[137].nic.mac1609_4 	totalBusyTime 	0
scalar V2X.node[137].veinsmobility 	startTime 	304.6
scalar V2X.node[137].veinsmobility 	totalTime 	95.4
scalar V2X.node[137].veinsmobility 	stopTime 	400
scalar V2X.node[137].veinsmobility 	minSpeed 	1.7443130715789e-13
scalar V2X.node[137].veinsmobility 	maxSpeed 	1.3048423450432
scalar V2X.node[137].veinsmobility 	totalDistance 	18.586864152818
scalar V2X.node[137].veinsmobility 	totalCO2Emission 	107.09289294865
scalar V2X.node[142].appl 	numReceiveDSL 	0
scalar V2X.node[142].appl 	numReceiveWI 	0
scalar V2X.node[142].appl 	numReceivePI 	0
scalar V2X.node[142].appl 	numSentHW 	0
scalar V2X.node[142].appl 	numReceiveHW_V2I 	0
scalar V2X.node[142].appl 	numReceiveHW_V2V 	0
scalar V2X.node[142].appl 	"Average throughput_HW_V2V" 	0
scalar V2X.node[142].appl 	"Average throughput_HW_V2I" 	0
scalar V2X.node[142].appl 	"Average throughput_DSL" 	0
scalar V2X.node[142].appl 	"Average throughput_WI" 	0
scalar V2X.node[142].appl 	"Average throughput_PI" 	0
scalar V2X.node[142].nic.phy80211p 	busyTime 	0
scalar V2X.node[142].nic.phy80211p 	ncollisions 	0
scalar V2X.node[142].nic.mac1609_4 	ReceivedUnicastPackets 	0
scalar V2X.node[142].nic.mac1609_4 	ReceivedBroadcasts 	0
scalar V2X.node[142].nic.mac1609_4 	SentPackets 	0
scalar V2X.node[142].nic.mac1609_4 	SNIRLostPackets 	0
scalar V2X.node[142].nic.mac1609_4 	RXTXLostPackets 	0
scalar V2X.node[142].nic.mac1609_4 	TotalLostPackets 	0
scalar V2X.node[142].nic.mac1609_4 	DroppedPacketsInMac 	0
scalar V2X.node[142].nic.mac1609_4 	TooLittleTime 	0
scalar V2X.node[142].nic.mac1609_4 	TimesIntoBackoff 	0
scalar V2X.node[142].nic.mac1609_4 	SlotsBackoff 	0
scalar V2X.node[142].nic.mac1609_4 	NumInternalContention 	0
scalar V2X.node[142].nic.mac1609_4 	totalBusyTime 	0
scalar V2X.node[142].veinsmobility 	startTime 	316.2
scalar V2X.node[142].veinsmobility 	totalTime 	83.8
scalar V2X.node[142].veinsmobility 	stopTime 	400
scalar V2X.node[142].veinsmobility 	minSpeed 	1.7445708675316e-13
scalar V2X.node[142].veinsmobility 	maxSpeed 	1.1487251512166
scalar V2X.node[142].veinsmobility 	totalDistance 	12.251559264979
scalar V2X.node[142].veinsmobility 	totalCO2Emission 	93.879845894411
scalar V2X.node[148].appl 	numReceiveDSL 	0
scalar V2X.node[148].appl 	numReceiveWI 	0
scalar V2X.node[148].appl 	numReceivePI 	0
scalar V2X.node[148].appl 	numSentHW 	0
scalar V2X.node[148].appl 	numReceiveHW_V2I 	0
scalar V2X.node[148].appl 	numReceiveHW_V2V 	0
scalar V2X.node[148].appl 	"Average throughput_HW_V2V" 	0
scalar V2X.node[148].appl 	"Average throughput_HW_V2I" 	0
scalar V2X.node[148].appl 	"Average throughput_DSL" 	0
scalar V2X.node[148].appl 	"Average throughput_WI" 	0
scalar V2X.node[148].appl 	"Average throughput_PI" 	0
scalar V2X.node[148].nic.phy80211p 	busyTime 	0
scalar V2X.node[148].nic.phy80211p 	ncollisions 	0
scalar V2X.node[148].nic.mac1609_4 	ReceivedUnicastPackets 	0
scalar V2X.node[148].nic.mac1609_4 	ReceivedBroadcasts 	0
scalar V2X.node[148].nic.mac1609_4 	SentPackets 	0
scalar V2X.node[148].nic.mac1609_4 	SNIRLostPackets 	0
scalar V2X.node[148].nic.mac1609_4 	RXTXLostPackets 	0
scalar V2X.node[148].nic.mac1609_4 	TotalLostPackets 	0
scalar V2X.node[148].nic.mac1609_4 	DroppedPacketsInMac 	0
scalar V2X.node[148].nic.mac1609_4 	TooLittleTime 	0
scalar V2X.node[148].nic.mac1609_4 	TimesIntoBackoff 	0
scalar V2X.node[148].nic.mac1609_4 	SlotsBackoff 	0
scalar V2X.node[148].nic.mac1609_4 	NumInternalContention 	0
scalar V2X.node[148].nic.mac1609_4 	totalBusyTime 	0
scalar V2X.node[148].veinsmobility 	startTime 	328.7
scalar V2X.node[148].veinsmobility 	totalTime 	71.3
scalar V2X.node[148].veinsmobility 	stopTime 	400
scalar V2X.node[148].veinsmobility 	minSpeed 	8.7823925199635e-14
scalar V2X.node[148].veinsmobility 	maxSpeed 	0.82621286971674
scalar V2X.node[148].veinsmobility 	totalDistance 	5.9077019213229
scalar V2X.node[148].veinsmobility 	totalCO2Emission 	79.498298489594
scalar V2X.node[153].appl 	numReceiveDSL 	0
scalar V2X.node[153].appl 	numReceiveWI 	0
scalar V2X.node[153].appl 	numReceivePI 	0
scalar V2X.node[153].appl 	numSentHW 	0
scalar V2X.node[153].appl 	numReceiveHW_V2I 	0
scalar V2X.node[153].appl 	numReceiveHW_V2V 	0
scalar V2X.node[153].appl 	"Average throughput_HW_V2V" 	0
scalar V2X.node[153].appl 	"Average throughput_HW_V2I" 	0
scalar V2X.node[153].appl 	"Average throughput_DSL" 	0
scalar V2X.node[153].appl 	"Average throughput_WI" 	0
scalar V2X.node[153].appl 	"Average throughput_PI" 	0
scalar V2X.node[153].nic.phy80211p 	busyTime 	0
scalar V2X.node[153].nic.phy80211p 	ncollisions 	0
scalar V2X.node[153].nic.mac1609_4 	ReceivedUnicastPackets 	0
scalar V2X.node[153].nic.mac1609_4 	ReceivedBroadcasts 	0
scalar V2X.node[153].nic.mac1609_4 	SentPackets 	0
scalar V2X.node[153].nic.mac1609_4 	SNIRLostPackets 	0
scalar V2X.node[153].nic.mac1609_4 	RXTXLostPackets 	0
scalar V2X.node[153].nic.mac1609_4 	TotalLostPackets 	0
scalar V2X.node[153].nic.mac1609_4 	DroppedPacketsInMac 	0
scalar V2X.node[153].nic.mac1609_4 	TooLittleTime 	0
scalar V2X.node[153].nic.mac1609_4 	TimesIntoBackoff 	0
scalar V2X.node[153].nic.mac1609_4 	SlotsBackoff 	0
scalar V2X.node[153].nic.mac1609_4 	NumInternalContention 	0
scalar V2X.node[153].nic.mac1609_4 	totalBusyTime 	0
scalar V2X.node[153].veinsmobility 	startTime 	337.1
scalar V2X.node[153].veinsmobility 	totalTime 	62.9
scalar V2X.node[153].veinsmobility 	stopTime 	400
scalar V2X.node[153].veinsmobility 	minSpeed 	4.3642820487718e-14
scalar V2X.node[153].veinsmobility 	maxSpeed 	0.51161381877211
scalar V2X.node[153].veinsmobility 	totalDistance 	2.604496844502
scalar V2X.node[153].veinsmobility 	totalCO2Emission 	69.915275866523
scalar V2X.node[41].appl 	numReceiveDSL 	415
scalar V2X.node[41].appl 	numReceiveWI 	414
scalar V2X.node[41].appl 	numReceivePI 	415
scalar V2X.node[41].appl 	numSentHW 	0
scalar V2X.node[41].appl 	numReceiveHW_V2I 	0
scalar V2X.node[41].appl 	numReceiveHW_V2V 	0
scalar V2X.node[41].appl 	"Average throughput_HW_V2V" 	0
scalar V2X.node[41].appl 	"Average throughput_HW_V2I" 	0
scalar V2X.node[41].appl 	"Average throughput_DSL" 	1312.7793696275
scalar V2X.node[41].appl 	"Average throughput_WI" 	1309.6160458453
scalar V2X.node[41].appl 	"Average throughput_PI" 	1312.7793696275
scalar V2X.node[41].nic.phy80211p 	busyTime 	0.0010559312320917
scalar V2X.node[41].nic.phy80211p 	ncollisions 	1
scalar V2X.node[41].nic.mac1609_4 	ReceivedUnicastPackets 	0
scalar V2X.node[41].nic.mac1609_4 	ReceivedBroadcasts 	2489
scalar V2X.node[41].nic.mac1609_4 	SentPackets 	0
scalar V2X.node[41].nic.mac1609_4 	SNIRLostPackets 	1
scalar V2X.node[41].nic.mac1609_4 	RXTXLostPackets 	0
scalar V2X.node[41].nic.mac1609_4 	TotalLostPackets 	1
scalar V2X.node[41].nic.mac1609_4 	DroppedPacketsInMac 	0
scalar V2X.node[41].nic.mac1609_4 	TooLittleTime 	0
scalar V2X.node[41].nic.mac1609_4 	TimesIntoBackoff 	0
scalar V2X.node[41].nic.mac1609_4 	SlotsBackoff 	0
scalar V2X.node[41].nic.mac1609_4 	NumInternalContention 	0
scalar V2X.node[41].nic.mac1609_4 	totalBusyTime 	0.36852
scalar V2X.node[41].veinsmobility 	startTime 	51
scalar V2X.node[41].veinsmobility 	totalTime 	349
scalar V2X.node[41].veinsmobility 	stopTime 	400
scalar V2X.node[41].veinsmobility 	minSpeed 	6.9763028362645e-13
scalar V2X.node[41].veinsmobility 	maxSpeed 	1.3888882237095
scalar V2X.node[41].veinsmobility 	totalDistance 	973.74300543436
scalar V2X.node[41].veinsmobility 	totalCO2Emission 	406.98220565431
scalar V2X.node[44].appl 	numReceiveDSL 	401
scalar V2X.node[44].appl 	numReceiveWI 	401
scalar V2X.node[44].appl 	numReceivePI 	401
scalar V2X.node[44].appl 	numSentHW 	0
scalar V2X.node[44].appl 	numReceiveHW_V2I 	0
scalar V2X.node[44].appl 	numReceiveHW_V2V 	0
scalar V2X.node[44].appl 	"Average throughput_HW_V2V" 	0
scalar V2X.node[44].appl 	"Average throughput_HW_V2I" 	0
scalar V2X.node[44].appl 	"Average throughput_DSL" 	1272.5035929865
scalar V2X.node[44].appl 	"Average throughput_WI" 	1272.5035929865
scalar V2X.node[44].appl 	"Average throughput_PI" 	1272.5035929865
scalar V2X.node[44].nic.phy80211p 	busyTime 	0.0010235354987066
scalar V2X.node[44].nic.phy80211p 	ncollisions 	0
scalar V2X.node[44].nic.mac1609_4 	ReceivedUnicastPackets 	0
scalar V2X.node[44].nic.mac1609_4 	ReceivedBroadcasts 	2406
scalar V2X.node[44].nic.mac1609_4 	SentPackets 	0
scalar V2X.node[44].nic.mac1609_4 	SNIRLostPackets 	0
scalar V2X.node[44].nic.mac1609_4 	RXTXLostPackets 	0
scalar V2X.node[44].nic.mac1609_4 	TotalLostPackets 	0
scalar V2X.node[44].nic.mac1609_4 	DroppedPacketsInMac 	0
scalar V2X.node[44].nic.mac1609_4 	TooLittleTime 	0
scalar V2X.node[44].nic.mac1609_4 	TimesIntoBackoff 	0
scalar V2X.node[44].nic.mac1609_4 	SlotsBackoff 	0
scalar V2X.node[44].nic.mac1609_4 	NumInternalContention 	0
scalar V2X.node[44].nic.mac1609_4 	totalBusyTime 	0.356088
scalar V2X.node[44].veinsmobility 	startTime 	52.1
scalar V2X.node[44].veinsmobility 	totalTime 	347.9
scalar V2X.node[44].veinsmobility 	stopTime 	400
scalar V2X.node[44].veinsmobility 	minSpeed 	6.9762513399847e-13
scalar V2X.node[44].veinsmobility 	maxSpeed 	1.3888884930412
scalar V2X.node[44].veinsmobility 	totalDistance 	969.34134698414
scalar V2X.node[44].veinsmobility 	totalCO2Emission 	405.45903260207
scalar V2X.node[7].appl 	numReceiveDSL 	901
scalar V2X.node[7].appl 	numReceiveWI 	894
scalar V2X.node[7].appl 	numReceivePI 	890
scalar V2X.node[7].appl 	numSentHW 	0
scalar V2X.node[7].appl 	numReceiveHW_V2I 	0
scalar V2X.node[7].appl 	numReceiveHW_V2V 	0
scalar V2X.node[7].appl 	"Average throughput_HW_V2V" 	0
scalar V2X.node[7].appl 	"Average throughput_HW_V2I" 	0
scalar V2X.node[7].appl 	"Average throughput_DSL" 	2504.2900302115
scalar V2X.node[7].appl 	"Average throughput_WI" 	2484.833836858
scalar V2X.node[7].appl 	"Average throughput_PI" 	2473.7160120846
scalar V2X.node[7].nic.phy80211p 	busyTime 	0.0021104531722054
scalar V2X.node[7].nic.phy80211p 	ncollisions 	161
scalar V2X.node[7].nic.mac1609_4 	ReceivedUnicastPackets 	0
scalar V2X.node[7].nic.mac1609_4 	ReceivedBroadcasts 	5503
scalar V2X.node[7].nic.mac1609_4 	SentPackets 	0
scalar V2X.node[7].nic.mac1609_4 	SNIRLostPackets 	161
scalar V2X.node[7].nic.mac1609_4 	RXTXLostPackets 	0
scalar V2X.node[7].nic.mac1609_4 	TotalLostPackets 	161
scalar V2X.node[7].nic.mac1609_4 	DroppedPacketsInMac 	0
scalar V2X.node[7].nic.mac1609_4 	TooLittleTime 	0
scalar V2X.node[7].nic.mac1609_4 	TimesIntoBackoff 	0
scalar V2X.node[7].nic.mac1609_4 	SlotsBackoff 	0
scalar V2X.node[7].nic.mac1609_4 	NumInternalContention 	0
scalar V2X.node[7].nic.mac1609_4 	totalBusyTime 	0.838272
scalar V2X.node[7].veinsmobility 	startTime 	2.8
scalar V2X.node[7].veinsmobility 	totalTime 	397.2
scalar V2X.node[7].veinsmobility 	stopTime 	400
scalar V2X.node[7].veinsmobility 	minSpeed 	0.50709156958166
scalar V2X.node[7].veinsmobility 	maxSpeed 	1.3888866829398
scalar V2X.node[7].veinsmobility 	totalDistance 	1293.5594307367
scalar V2X.node[7].veinsmobility 	totalCO2Emission 	467.56381191583
scalar V2X.node[48].appl 	numReceiveDSL 	327
scalar V2X.node[48].appl 	numReceiveWI 	327
scalar V2X.node[48].appl 	numReceivePI 	327
scalar V2X.node[48].appl 	numSentHW 	0
scalar V2X.node[48].appl 	numReceiveHW_V2I 	0
scalar V2X.node[48].appl 	numReceiveHW_V2V 	0
scalar V2X.node[48].appl 	"Average throughput_HW_V2V" 	0
scalar V2X.node[48].appl 	"Average throughput_HW_V2I" 	0
scalar V2X.node[48].appl 	"Average throughput_DSL" 	1058.0539273154
scalar V2X.node[48].appl 	"Average throughput_WI" 	1058.0539273154
scalar V2X.node[48].appl 	"Average throughput_PI" 	1058.0539273154
scalar V2X.node[48].nic.phy80211p 	busyTime 	0.0008510433763189
scalar V2X.node[48].nic.phy80211p 	ncollisions 	0
scalar V2X.node[48].nic.mac1609_4 	ReceivedUnicastPackets 	0
scalar V2X.node[48].nic.mac1609_4 	ReceivedBroadcasts 	1962
scalar V2X.node[48].nic.mac1609_4 	SentPackets 	0
scalar V2X.node[48].nic.mac1609_4 	SNIRLostPackets 	0
scalar V2X.node[48].nic.mac1609_4 	RXTXLostPackets 	0
scalar V2X.node[48].nic.mac1609_4 	TotalLostPackets 	0
scalar V2X.node[48].nic.mac1609_4 	DroppedPacketsInMac 	0
scalar V2X.node[48].nic.mac1609_4 	TooLittleTime 	0
scalar V2X.node[48].nic.mac1609_4 	TimesIntoBackoff 	0
scalar V2X.node[48].nic.mac1609_4 	SlotsBackoff 	0
scalar V2X.node[48].nic.mac1609_4 	NumInternalContention 	0
scalar V2X.node[48].nic.mac1609_4 	totalBusyTime 	0.290376
scalar V2X.node[48].veinsmobility 	startTime 	58.8
scalar V2X.node[48].veinsmobility 	totalTime 	341.2
scalar V2X.node[48].veinsmobility 	stopTime 	400
scalar V2X.node[48].veinsmobility 	minSpeed 	6.9762022477601e-13
scalar V2X.node[48].veinsmobility 	maxSpeed 	1.3888856811439
scalar V2X.node[48].veinsmobility 	totalDistance 	946.47626765174
scalar V2X.node[48].veinsmobility 	totalCO2Emission 	397.36198624648
scalar V2X.node[53].appl 	numReceiveDSL 	136
scalar V2X.node[53].appl 	numReceiveWI 	136
scalar V2X.node[53].appl 	numReceivePI 	136
scalar V2X.node[53].appl 	numSentHW 	0
scalar V2X.node[53].appl 	numReceiveHW_V2I 	0
scalar V2X.node[53].appl 	numReceiveHW_V2V 	0
scalar V2X.node[53].appl 	"Average throughput_HW_V2V" 	0
scalar V2X.node[53].appl 	"Average throughput_HW_V2I" 	0
scalar V2X.node[53].appl 	"Average throughput_DSL" 	456.36474164134
scalar V2X.node[53].appl 	"Average throughput_WI" 	456.36474164134
scalar V2X.node[53].appl 	"Average throughput_PI" 	456.36474164134
scalar V2X.node[53].nic.phy80211p 	busyTime 	0.00036707598784194
scalar V2X.node[53].nic.phy80211p 	ncollisions 	0
scalar V2X.node[53].nic.mac1609_4 	ReceivedUnicastPackets 	0
scalar V2X.node[53].nic.mac1609_4 	ReceivedBroadcasts 	816
scalar V2X.node[53].nic.mac1609_4 	SentPackets 	0
scalar V2X.node[53].nic.mac1609_4 	SNIRLostPackets 	0
scalar V2X.node[53].nic.mac1609_4 	RXTXLostPackets 	0
scalar V2X.node[53].nic.mac1609_4 	TotalLostPackets 	0
scalar V2X.node[53].nic.mac1609_4 	DroppedPacketsInMac 	0
scalar V2X.node[53].nic.mac1609_4 	TooLittleTime 	0
scalar V2X.node[53].nic.mac1609_4 	TimesIntoBackoff 	0
scalar V2X.node[53].nic.mac1609_4 	SlotsBackoff 	0
scalar V2X.node[53].nic.mac1609_4 	NumInternalContention 	0
scalar V2X.node[53].nic.mac1609_4 	totalBusyTime 	0.120768
[...]
scalar V2X.node[149].nic.mac1609_4 	SentPackets 	0
scalar V2X.node[149].nic.mac1609_4 	SNIRLostPackets 	0
scalar V2X.node[149].nic.mac1609_4 	RXTXLostPackets 	0
scalar V2X.node[149].nic.mac1609_4 	TotalLostPackets 	0
scalar V2X.node[149].nic.mac1609_4 	DroppedPacketsInMac 	0
scalar V2X.node[149].nic.mac1609_4 	TooLittleTime 	0
scalar V2X.node[149].nic.mac1609_4 	TimesIntoBackoff 	0
scalar V2X.node[149].nic.mac1609_4 	SlotsBackoff 	0
scalar V2X.node[149].nic.mac1609_4 	NumInternalContention 	0
scalar V2X.node[149].nic.mac1609_4 	totalBusyTime 	0
scalar V2X.node[149].veinsmobility 	startTime 	329.4
scalar V2X.node[149].veinsmobility 	totalTime 	70.6
scalar V2X.node[149].veinsmobility 	stopTime 	400
scalar V2X.node[149].veinsmobility 	minSpeed 	1.7002417069086e-05
scalar V2X.node[149].veinsmobility 	maxSpeed 	1.3915923185479
scalar V2X.node[149].veinsmobility 	totalDistance 	161.57200540337
scalar V2X.node[149].veinsmobility 	totalCO2Emission 	80.654757577847
scalar V2X.node[152].appl 	numReceiveDSL 	0
scalar V2X.node[152].appl 	numReceiveWI 	0
scalar V2X.node[152].appl 	numReceivePI 	0
scalar V2X.node[152].appl 	numSentHW 	0
scalar V2X.node[152].appl 	numReceiveHW_V2I 	0
scalar V2X.node[152].appl 	numReceiveHW_V2V 	0
scalar V2X.node[152].appl 	"Average throughput_HW_V2V" 	0
scalar V2X.node[152].appl 	"Average throughput_HW_V2I" 	0
scalar V2X.node[152].appl 	"Average throughput_DSL" 	0
scalar V2X.node[152].appl 	"Average throughput_WI" 	0
scalar V2X.node[152].appl 	"Average throughput_PI" 	0
scalar V2X.node[152].nic.phy80211p 	busyTime 	0
scalar V2X.node[152].nic.phy80211p 	ncollisions 	0
scalar V2X.node[152].nic.mac1609_4 	ReceivedUnicastPackets 	0
scalar V2X.node[152].nic.mac1609_4 	ReceivedBroadcasts 	0
scalar V2X.node[152].nic.mac1609_4 	SentPackets 	0
scalar V2X.node[152].nic.mac1609_4 	SNIRLostPackets 	0
scalar V2X.node[152].nic.mac1609_4 	RXTXLostPackets 	0
scalar V2X.node[152].nic.mac1609_4 	TotalLostPackets 	0
scalar V2X.node[152].nic.mac1609_4 	DroppedPacketsInMac 	0
scalar V2X.node[152].nic.mac1609_4 	TooLittleTime 	0
scalar V2X.node[152].nic.mac1609_4 	TimesIntoBackoff 	0
scalar V2X.node[152].nic.mac1609_4 	SlotsBackoff 	0
scalar V2X.node[152].nic.mac1609_4 	NumInternalContention 	0
scalar V2X.node[152].nic.mac1609_4 	totalBusyTime 	0
scalar V2X.node[152].veinsmobility 	startTime 	336.3
scalar V2X.node[152].veinsmobility 	totalTime 	63.7
scalar V2X.node[152].veinsmobility 	stopTime 	400
scalar V2X.node[152].veinsmobility 	minSpeed 	0.00025647603318652
scalar V2X.node[152].veinsmobility 	maxSpeed 	1.3902804263098
scalar V2X.node[152].veinsmobility 	totalDistance 	148.66055686799
scalar V2X.node[152].veinsmobility 	totalCO2Emission 	72.820560137055
scalar V2X.node[155].appl 	numReceiveDSL 	0
scalar V2X.node[155].appl 	numReceiveWI 	0
scalar V2X.node[155].appl 	numReceivePI 	0
scalar V2X.node[155].appl 	numSentHW 	0
scalar V2X.node[155].appl 	numReceiveHW_V2I 	0
scalar V2X.node[155].appl 	numReceiveHW_V2V 	0
scalar V2X.node[155].appl 	"Average throughput_HW_V2V" 	0
scalar V2X.node[155].appl 	"Average throughput_HW_V2I" 	0
scalar V2X.node[155].appl 	"Average throughput_DSL" 	0
scalar V2X.node[155].appl 	"Average throughput_WI" 	0
scalar V2X.node[155].appl 	"Average throughput_PI" 	0
scalar V2X.node[155].nic.phy80211p 	busyTime 	0
scalar V2X.node[155].nic.phy80211p 	ncollisions 	0
scalar V2X.node[155].nic.mac1609_4 	ReceivedUnicastPackets 	0
scalar V2X.node[155].nic.mac1609_4 	ReceivedBroadcasts 	0
scalar V2X.node[155].nic.mac1609_4 	SentPackets 	0
scalar V2X.node[155].nic.mac1609_4 	SNIRLostPackets 	0
scalar V2X.node[155].nic.mac1609_4 	RXTXLostPackets 	0
scalar V2X.node[155].nic.mac1609_4 	TotalLostPackets 	0
scalar V2X.node[155].nic.mac1609_4 	DroppedPacketsInMac 	0
scalar V2X.node[155].nic.mac1609_4 	TooLittleTime 	0
scalar V2X.node[155].nic.mac1609_4 	TimesIntoBackoff 	0
scalar V2X.node[155].nic.mac1609_4 	SlotsBackoff 	0
scalar V2X.node[155].nic.mac1609_4 	NumInternalContention 	0
scalar V2X.node[155].nic.mac1609_4 	totalBusyTime 	0
scalar V2X.node[155].veinsmobility 	startTime 	343.2
scalar V2X.node[155].veinsmobility 	totalTime 	56.8
scalar V2X.node[155].veinsmobility 	stopTime 	400
scalar V2X.node[155].veinsmobility 	minSpeed 	0.0024045844509811
scalar V2X.node[155].veinsmobility 	maxSpeed 	1.3890323042898
scalar V2X.node[155].veinsmobility 	totalDistance 	135.7978146826
scalar V2X.node[155].veinsmobility 	totalCO2Emission 	64.708148081171
scalar V2X.node[157].appl 	numReceiveDSL 	0
scalar V2X.node[157].appl 	numReceiveWI 	0
scalar V2X.node[157].appl 	numReceivePI 	0
scalar V2X.node[157].appl 	numSentHW 	0
scalar V2X.node[157].appl 	numReceiveHW_V2I 	0
scalar V2X.node[157].appl 	numReceiveHW_V2V 	0
scalar V2X.node[157].appl 	"Average throughput_HW_V2V" 	0
scalar V2X.node[157].appl 	"Average throughput_HW_V2I" 	0
scalar V2X.node[157].appl 	"Average throughput_DSL" 	0
scalar V2X.node[157].appl 	"Average throughput_WI" 	0
scalar V2X.node[157].appl 	"Average throughput_PI" 	0
scalar V2X.node[157].nic.phy80211p 	busyTime 	0
scalar V2X.node[157].nic.phy80211p 	ncollisions 	0
scalar V2X.node[157].nic.mac1609_4 	ReceivedUnicastPackets 	0
scalar V2X.node[157].nic.mac1609_4 	ReceivedBroadcasts 	0
scalar V2X.node[157].nic.mac1609_4 	SentPackets 	0
scalar V2X.node[157].nic.mac1609_4 	SNIRLostPackets 	0
scalar V2X.node[157].nic.mac1609_4 	RXTXLostPackets 	0
scalar V2X.node[157].nic.mac1609_4 	TotalLostPackets 	0
scalar V2X.node[157].nic.mac1609_4 	DroppedPacketsInMac 	0
scalar V2X.node[157].nic.mac1609_4 	TooLittleTime 	0
scalar V2X.node[157].nic.mac1609_4 	TimesIntoBackoff 	0
scalar V2X.node[157].nic.mac1609_4 	SlotsBackoff 	0
scalar V2X.node[157].nic.mac1609_4 	NumInternalContention 	0
scalar V2X.node[157].nic.mac1609_4 	totalBusyTime 	0
scalar V2X.node[157].veinsmobility 	startTime 	350.2
scalar V2X.node[157].veinsmobility 	totalTime 	49.8
scalar V2X.node[157].veinsmobility 	stopTime 	400
scalar V2X.node[157].veinsmobility 	minSpeed 	0.018544479032776
scalar V2X.node[157].veinsmobility 	maxSpeed 	1.3834191740059
scalar V2X.node[157].veinsmobility 	totalDistance 	122.84076096319
scalar V2X.node[157].veinsmobility 	totalCO2Emission 	56.917005120571
scalar V2X.node[158].appl 	numReceiveDSL 	0
scalar V2X.node[158].appl 	numReceiveWI 	0
scalar V2X.node[158].appl 	numReceivePI 	0
scalar V2X.node[158].appl 	numSentHW 	0
scalar V2X.node[158].appl 	numReceiveHW_V2I 	0
scalar V2X.node[158].appl 	numReceiveHW_V2V 	0
scalar V2X.node[158].appl 	"Average throughput_HW_V2V" 	0
scalar V2X.node[158].appl 	"Average throughput_HW_V2I" 	0
scalar V2X.node[158].appl 	"Average throughput_DSL" 	0
scalar V2X.node[158].appl 	"Average throughput_WI" 	0
scalar V2X.node[158].appl 	"Average throughput_PI" 	0
scalar V2X.node[158].nic.phy80211p 	busyTime 	0
scalar V2X.node[158].nic.phy80211p 	ncollisions 	0
scalar V2X.node[158].nic.mac1609_4 	ReceivedUnicastPackets 	0
scalar V2X.node[158].nic.mac1609_4 	ReceivedBroadcasts 	0
scalar V2X.node[158].nic.mac1609_4 	SentPackets 	0
scalar V2X.node[158].nic.mac1609_4 	SNIRLostPackets 	0
scalar V2X.node[158].nic.mac1609_4 	RXTXLostPackets 	0
scalar V2X.node[158].nic.mac1609_4 	TotalLostPackets 	0
scalar V2X.node[158].nic.mac1609_4 	DroppedPacketsInMac 	0
scalar V2X.node[158].nic.mac1609_4 	TooLittleTime 	0
scalar V2X.node[158].nic.mac1609_4 	TimesIntoBackoff 	0
scalar V2X.node[158].nic.mac1609_4 	SlotsBackoff 	0
scalar V2X.node[158].nic.mac1609_4 	NumInternalContention 	0
scalar V2X.node[158].nic.mac1609_4 	totalBusyTime 	0
scalar V2X.node[158].veinsmobility 	startTime 	355.8
scalar V2X.node[158].veinsmobility 	totalTime 	44.2
scalar V2X.node[158].veinsmobility 	stopTime 	400
scalar V2X.node[158].veinsmobility 	minSpeed 	0.048501593542567
scalar V2X.node[158].veinsmobility 	maxSpeed 	1.3805726552436
scalar V2X.node[158].veinsmobility 	totalDistance 	110.96908290751
scalar V2X.node[158].veinsmobility 	totalCO2Emission 	50.349982572534
scalar V2X.node[159].appl 	numReceiveDSL 	0
scalar V2X.node[159].appl 	numReceiveWI 	0
scalar V2X.node[159].appl 	numReceivePI 	0
scalar V2X.node[159].appl 	numSentHW 	0
scalar V2X.node[159].appl 	numReceiveHW_V2I 	0
scalar V2X.node[159].appl 	numReceiveHW_V2V 	0
scalar V2X.node[159].appl 	"Average throughput_HW_V2V" 	0
scalar V2X.node[159].appl 	"Average throughput_HW_V2I" 	0
scalar V2X.node[159].appl 	"Average throughput_DSL" 	0
scalar V2X.node[159].appl 	"Average throughput_WI" 	0
scalar V2X.node[159].appl 	"Average throughput_PI" 	0
scalar V2X.node[159].nic.phy80211p 	busyTime 	0
scalar V2X.node[159].nic.phy80211p 	ncollisions 	0
scalar V2X.node[159].nic.mac1609_4 	ReceivedUnicastPackets 	0
scalar V2X.node[159].nic.mac1609_4 	ReceivedBroadcasts 	0
scalar V2X.node[159].nic.mac1609_4 	SentPackets 	0
scalar V2X.node[159].nic.mac1609_4 	SNIRLostPackets 	0
scalar V2X.node[159].nic.mac1609_4 	RXTXLostPackets 	0
scalar V2X.node[159].nic.mac1609_4 	TotalLostPackets 	0
scalar V2X.node[159].nic.mac1609_4 	DroppedPacketsInMac 	0
scalar V2X.node[159].nic.mac1609_4 	TooLittleTime 	0
scalar V2X.node[159].nic.mac1609_4 	TimesIntoBackoff 	0
scalar V2X.node[159].nic.mac1609_4 	SlotsBackoff 	0
scalar V2X.node[159].nic.mac1609_4 	NumInternalContention 	0
scalar V2X.node[159].nic.mac1609_4 	totalBusyTime 	0
scalar V2X.node[159].veinsmobility 	startTime 	360.6
scalar V2X.node[159].veinsmobility 	totalTime 	39.4
scalar V2X.node[159].veinsmobility 	stopTime 	400
scalar V2X.node[159].veinsmobility 	minSpeed 	0.10689236652363
scalar V2X.node[159].veinsmobility 	maxSpeed 	1.3736873233712
scalar V2X.node[159].veinsmobility 	totalDistance 	98.910337830337
scalar V2X.node[159].veinsmobility 	totalCO2Emission 	44.936830759639
scalar V2X.node[161].appl 	numReceiveDSL 	0
scalar V2X.node[161].appl 	numReceiveWI 	0
scalar V2X.node[161].appl 	numReceivePI 	0
scalar V2X.node[161].appl 	numSentHW 	0
scalar V2X.node[161].appl 	numReceiveHW_V2I 	0
scalar V2X.node[161].appl 	numReceiveHW_V2V 	0
scalar V2X.node[161].appl 	"Average throughput_HW_V2V" 	0
scalar V2X.node[161].appl 	"Average throughput_HW_V2I" 	0
scalar V2X.node[161].appl 	"Average throughput_DSL" 	0
scalar V2X.node[161].appl 	"Average throughput_WI" 	0
scalar V2X.node[161].appl 	"Average throughput_PI" 	0
scalar V2X.node[161].nic.phy80211p 	busyTime 	0
scalar V2X.node[161].nic.phy80211p 	ncollisions 	0
scalar V2X.node[161].nic.mac1609_4 	ReceivedUnicastPackets 	0
scalar V2X.node[161].nic.mac1609_4 	ReceivedBroadcasts 	0
scalar V2X.node[161].nic.mac1609_4 	SentPackets 	0
scalar V2X.node[161].nic.mac1609_4 	SNIRLostPackets 	0
scalar V2X.node[161].nic.mac1609_4 	RXTXLostPackets 	0
scalar V2X.node[161].nic.mac1609_4 	TotalLostPackets 	0
scalar V2X.node[161].nic.mac1609_4 	DroppedPacketsInMac 	0
scalar V2X.node[161].nic.mac1609_4 	TooLittleTime 	0
scalar V2X.node[161].nic.mac1609_4 	TimesIntoBackoff 	0
scalar V2X.node[161].nic.mac1609_4 	SlotsBackoff 	0
scalar V2X.node[161].nic.mac1609_4 	NumInternalContention 	0
scalar V2X.node[161].nic.mac1609_4 	totalBusyTime 	0
scalar V2X.node[161].veinsmobility 	startTime 	366.7
scalar V2X.node[161].veinsmobility 	totalTime 	33.3
scalar V2X.node[161].veinsmobility 	stopTime 	400
scalar V2X.node[161].veinsmobility 	minSpeed 	0.32779255229494
scalar V2X.node[161].veinsmobility 	maxSpeed 	1.3450755040409
scalar V2X.node[161].veinsmobility 	totalDistance 	84.529522452383
scalar V2X.node[161].veinsmobility 	totalCO2Emission 	37.992837707509
scalar V2X.node[162].appl 	numReceiveDSL 	0
scalar V2X.node[162].appl 	numReceiveWI 	0
scalar V2X.node[162].appl 	numReceivePI 	0
scalar V2X.node[162].appl 	numSentHW 	0
scalar V2X.node[162].appl 	numReceiveHW_V2I 	0
scalar V2X.node[162].appl 	numReceiveHW_V2V 	0
scalar V2X.node[162].appl 	"Average throughput_HW_V2V" 	0
scalar V2X.node[162].appl 	"Average throughput_HW_V2I" 	0
scalar V2X.node[162].appl 	"Average throughput_DSL" 	0
scalar V2X.node[162].appl 	"Average throughput_WI" 	0
scalar V2X.node[162].appl 	"Average throughput_PI" 	0
scalar V2X.node[162].nic.phy80211p 	busyTime 	0
scalar V2X.node[162].nic.phy80211p 	ncollisions 	0
scalar V2X.node[162].nic.mac1609_4 	ReceivedUnicastPackets 	0
scalar V2X.node[162].nic.mac1609_4 	ReceivedBroadcasts 	0
scalar V2X.node[162].nic.mac1609_4 	SentPackets 	0
scalar V2X.node[162].nic.mac1609_4 	SNIRLostPackets 	0
scalar V2X.node[162].nic.mac1609_4 	RXTXLostPackets 	0
scalar V2X.node[162].nic.mac1609_4 	TotalLostPackets 	0
scalar V2X.node[162].nic.mac1609_4 	DroppedPacketsInMac 	0
scalar V2X.node[162].nic.mac1609_4 	TooLittleTime 	0
scalar V2X.node[162].nic.mac1609_4 	TimesIntoBackoff 	0
scalar V2X.node[162].nic.mac1609_4 	SlotsBackoff 	0
scalar V2X.node[162].nic.mac1609_4 	NumInternalContention 	0
scalar V2X.node[162].nic.mac1609_4 	totalBusyTime 	0
scalar V2X.node[162].veinsmobility 	startTime 	372.2
scalar V2X.node[162].veinsmobility 	totalTime 	27.8
scalar V2X.node[162].veinsmobility 	stopTime 	400
scalar V2X.node[162].veinsmobility 	minSpeed 	0.44384171903042
scalar V2X.node[162].veinsmobility 	maxSpeed 	1.3200497611245
scalar V2X.node[162].veinsmobility 	totalDistance 	71.464718850082
scalar V2X.node[162].veinsmobility 	totalCO2Emission 	31.682190349674
scalar V2X.node[163].appl 	numReceiveDSL 	0
scalar V2X.node[163].appl 	numReceiveWI 	0
scalar V2X.node[163].appl 	numReceivePI 	0
scalar V2X.node[163].appl 	numSentHW 	0
scalar V2X.node[163].appl 	numReceiveHW_V2I 	0
scalar V2X.node[163].appl 	numReceiveHW_V2V 	0
scalar V2X.node[163].appl 	"Average throughput_HW_V2V" 	0
scalar V2X.node[163].appl 	"Average throughput_HW_V2I" 	0
scalar V2X.node[163].appl 	"Average throughput_DSL" 	0
scalar V2X.node[163].appl 	"Average throughput_WI" 	0
scalar V2X.node[163].appl 	"Average throughput_PI" 	0
scalar V2X.node[163].nic.phy80211p 	busyTime 	0
scalar V2X.node[163].nic.phy80211p 	ncollisions 	0
scalar V2X.node[163].nic.mac1609_4 	ReceivedUnicastPackets 	0
scalar V2X.node[163].nic.mac1609_4 	ReceivedBroadcasts 	0
scalar V2X.node[163].nic.mac1609_4 	SentPackets 	0
scalar V2X.node[163].nic.mac1609_4 	SNIRLostPackets 	0
scalar V2X.node[163].nic.mac1609_4 	RXTXLostPackets 	0
scalar V2X.node[163].nic.mac1609_4 	TotalLostPackets 	0
scalar V2X.node[163].nic.mac1609_4 	DroppedPacketsInMac 	0
scalar V2X.node[163].nic.mac1609_4 	TooLittleTime 	0
scalar V2X.node[163].nic.mac1609_4 	TimesIntoBackoff 	0
scalar V2X.node[163].nic.mac1609_4 	SlotsBackoff 	0
scalar V2X.node[163].nic.mac1609_4 	NumInternalContention 	0
scalar V2X.node[163].nic.mac1609_4 	totalBusyTime 	0
scalar V2X.node[163].veinsmobility 	startTime 	377
scalar V2X.node[163].veinsmobility 	totalTime 	23
scalar V2X.node[163].veinsmobility 	stopTime 	400
scalar V2X.node[163].veinsmobility 	minSpeed 	0.54720611598201
scalar V2X.node[163].veinsmobility 	maxSpeed 	1.2737784974539
scalar V2X.node[163].veinsmobility 	totalDistance 	58.038424368391
scalar V2X.node[163].veinsmobility 	totalCO2Emission 	26.235808505341
scalar V2X.node[165].appl 	numReceiveDSL 	0
scalar V2X.node[165].appl 	numReceiveWI 	0
scalar V2X.node[165].appl 	numReceivePI 	0
scalar V2X.node[165].appl 	numSentHW 	0
scalar V2X.node[165].appl 	numReceiveHW_V2I 	0
scalar V2X.node[165].appl 	numReceiveHW_V2V 	0
scalar V2X.node[165].appl 	"Average throughput_HW_V2V" 	0
scalar V2X.node[165].appl 	"Average throughput_HW_V2I" 	0
scalar V2X.node[165].appl 	"Average throughput_DSL" 	0
scalar V2X.node[165].appl 	"Average throughput_WI" 	0
scalar V2X.node[165].appl 	"Average throughput_PI" 	0
scalar V2X.node[165].nic.phy80211p 	busyTime 	0
scalar V2X.node[165].nic.phy80211p 	ncollisions 	0
scalar V2X.node[165].nic.mac1609_4 	ReceivedUnicastPackets 	0
scalar V2X.node[165].nic.mac1609_4 	ReceivedBroadcasts 	0
scalar V2X.node[165].nic.mac1609_4 	SentPackets 	0
scalar V2X.node[165].nic.mac1609_4 	SNIRLostPackets 	0
scalar V2X.node[165].nic.mac1609_4 	RXTXLostPackets 	0
scalar V2X.node[165].nic.mac1609_4 	TotalLostPackets 	0
scalar V2X.node[165].nic.mac1609_4 	DroppedPacketsInMac 	0
scalar V2X.node[165].nic.mac1609_4 	TooLittleTime 	0
scalar V2X.node[165].nic.mac1609_4 	TimesIntoBackoff 	0
scalar V2X.node[165].nic.mac1609_4 	SlotsBackoff 	0
scalar V2X.node[165].nic.mac1609_4 	NumInternalContention 	0
scalar V2X.node[165].nic.mac1609_4 	totalBusyTime 	0
scalar V2X.node[165].veinsmobility 	startTime 	383
scalar V2X.node[165].veinsmobility 	totalTime 	17
scalar V2X.node[165].veinsmobility 	stopTime 	400
scalar V2X.node[165].veinsmobility 	minSpeed 	0.36160546832123
scalar V2X.node[165].veinsmobility 	maxSpeed 	1.1724971197538
scalar V2X.node[165].veinsmobility 	totalDistance 	40.487948725105
scalar V2X.node[165].veinsmobility 	totalCO2Emission 	19.56237494994
scalar V2X.node[166].appl 	numReceiveDSL 	0
scalar V2X.node[166].appl 	numReceiveWI 	0
scalar V2X.node[166].appl 	numReceivePI 	0
scalar V2X.node[166].appl 	numSentHW 	0
scalar V2X.node[166].appl 	numReceiveHW_V2I 	0
scalar V2X.node[166].appl 	numReceiveHW_V2V 	0
scalar V2X.node[166].appl 	"Average throughput_HW_V2V" 	0
scalar V2X.node[166].appl 	"Average throughput_HW_V2I" 	0
scalar V2X.node[166].appl 	"Average throughput_DSL" 	0
scalar V2X.node[166].appl 	"Average throughput_WI" 	0
scalar V2X.node[166].appl 	"Average throughput_PI" 	0
scalar V2X.node[166].nic.phy80211p 	busyTime 	0
scalar V2X.node[166].nic.phy80211p 	ncollisions 	0
scalar V2X.node[166].nic.mac1609_4 	ReceivedUnicastPackets 	0
scalar V2X.node[166].nic.mac1609_4 	ReceivedBroadcasts 	0
scalar V2X.node[166].nic.mac1609_4 	SentPackets 	0
scalar V2X.node[166].nic.mac1609_4 	SNIRLostPackets 	0
scalar V2X.node[166].nic.mac1609_4 	RXTXLostPackets 	0
scalar V2X.node[166].nic.mac1609_4 	TotalLostPackets 	0
scalar V2X.node[166].nic.mac1609_4 	DroppedPacketsInMac 	0
scalar V2X.node[166].nic.mac1609_4 	TooLittleTime 	0
scalar V2X.node[166].nic.mac1609_4 	TimesIntoBackoff 	0
scalar V2X.node[166].nic.mac1609_4 	SlotsBackoff 	0
scalar V2X.node[166].nic.mac1609_4 	NumInternalContention 	0
scalar V2X.node[166].nic.mac1609_4 	totalBusyTime 	0
scalar V2X.node[166].veinsmobility 	startTime 	388.6
scalar V2X.node[166].veinsmobility 	totalTime 	11.4
scalar V2X.node[166].veinsmobility 	stopTime 	400
scalar V2X.node[166].veinsmobility 	minSpeed 	0.74280378425937
scalar V2X.node[166].veinsmobility 	maxSpeed 	1.0749043638619
scalar V2X.node[166].veinsmobility 	totalDistance 	26.507955649775
scalar V2X.node[166].veinsmobility 	totalCO2Emission 	13.015009302665
scalar V2X.node[169].appl 	numReceiveDSL 	0
scalar V2X.node[169].appl 	numReceiveWI 	0
scalar V2X.node[169].appl 	numReceivePI 	0
scalar V2X.node[169].appl 	numSentHW 	0
scalar V2X.node[169].appl 	numReceiveHW_V2I 	0
scalar V2X.node[169].appl 	numReceiveHW_V2V 	0
scalar V2X.node[169].appl 	"Average throughput_HW_V2V" 	0
scalar V2X.node[169].appl 	"Average throughput_HW_V2I" 	0
scalar V2X.node[169].appl 	"Average throughput_DSL" 	0
scalar V2X.node[169].appl 	"Average throughput_WI" 	0
scalar V2X.node[169].appl 	"Average throughput_PI" 	0
scalar V2X.node[169].nic.phy80211p 	busyTime 	0
scalar V2X.node[169].nic.phy80211p 	ncollisions 	0
scalar V2X.node[169].nic.mac1609_4 	ReceivedUnicastPackets 	0
scalar V2X.node[169].nic.mac1609_4 	ReceivedBroadcasts 	0
scalar V2X.node[169].nic.mac1609_4 	SentPackets 	0
scalar V2X.node[169].nic.mac1609_4 	SNIRLostPackets 	0
scalar V2X.node[169].nic.mac1609_4 	RXTXLostPackets 	0
scalar V2X.node[169].nic.mac1609_4 	TotalLostPackets 	0
scalar V2X.node[169].nic.mac1609_4 	DroppedPacketsInMac 	0
scalar V2X.node[169].nic.mac1609_4 	TooLittleTime 	0
scalar V2X.node[169].nic.mac1609_4 	TimesIntoBackoff 	0
scalar V2X.node[169].nic.mac1609_4 	SlotsBackoff 	0
scalar V2X.node[169].nic.mac1609_4 	NumInternalContention 	0
scalar V2X.node[169].nic.mac1609_4 	totalBusyTime 	0
scalar V2X.node[169].veinsmobility 	startTime 	396.6
scalar V2X.node[169].veinsmobility 	totalTime 	3.4
scalar V2X.node[169].veinsmobility 	stopTime 	400
scalar V2X.node[169].veinsmobility 	minSpeed 	0.2705496009364
scalar V2X.node[169].veinsmobility 	maxSpeed 	0.81400790978723
scalar V2X.node[169].veinsmobility 	totalDistance 	5.045746117371
scalar V2X.node[169].veinsmobility 	totalCO2Emission 	3.838944954092
